          AutoDock 4.2 Release 4.2.6   
         (C) 1989-2012 The Scripps Research Institute
        AutoDock comes with ABSOLUTELY NO WARRANTY.
        AutoDock is free software, and you are welcome
        to redistribute it under certain conditions;
        for details type 'autodock4 -C'

                     main.cc  $Revision: 1.213 $

                   Compiled on Feb 20 2022 at 09:48:33


This file was created at:			10:03 16" a.m., 11/08/2024
                   on host:		"ThinkStation-P620"
Current Working Directory = "/home/antonio/Documenti/buccheri/IDROSSAMICO HDAC/HDAC 2/P/Ligand_9"

      ________________________________________________________________

                   SETTING UP DEFAULT PARAMETER LIBRARY
      ________________________________________________________________


Random number generator was seeded with values 328180, 1731056596.
Docking parameter file (DPF) used for this docking:		ligand_dock.biased.dpf
DPF> autodock_parameter_version 4.2       # used by autodock to validate parameter set

	Autodock parameter version 4.2.
DPF> outlev 1                             # diagnostic output level

Output Level = 1  ADT-COMPATIBLE OUTPUT DURING DOCKING.
DPF> intelec                              # calculate internal electrostatics

Electrostatic energies will be calculated for all non-bonds between moving atoms.
DPF> seed pid time                        # seeds for random generator

Random number generator was seeded with values 328180, 1731056596.
DPF> ligand_types C HD OA N               # atoms types in ligand

DPF> fld receptor.maps.fld                # grid_data_file

Opening Grid Map Dimensions file:		receptor.maps.fld
Grid Point Spacing =				0.375 Angstroms

Even Number of User-specified Grid Points =	70 x-points
						70 y-points
						70 z-points

Coordinates of Central Grid Point of Maps =	(24.757, -16.735, 0.794)
Macromolecule file used to create Grid Maps =	receptor.pdbqt
Grid Parameter file used to create Grid Maps =	receptor.gpf
Minimum coordinates in grid = (11.632, -29.860, -12.331)
Maximum coordinates in grid = (37.882, -3.610, 13.919)

DPF> map receptor.C.map                   # atom-specific affinity map

DPF> map receptor.HD.biased.map

DPF> map receptor.OA.biased.map

DPF> map receptor.N.map                   # atom-specific affinity map

DPF> elecmap receptor.e.map               # electrostatics map

DPF> desolvmap receptor.d.map             # desolvation map

DPF> move ligand.pdbqt                    # small molecule

1,4-interactions will be _ignored_ in the non-bonded internal energy calculation.

Ligand PDBQT file = "ligand.pdbqt"

INPUT LIGAND PDBQT FILE:
________________________

INPUT-LIGAND-PDBQT: REMARK  Name = 
INPUT-LIGAND-PDBQT: REMARK  9 active torsions:
INPUT-LIGAND-PDBQT: REMARK  status: ('A' for Active; 'I' for Inactive)
INPUT-LIGAND-PDBQT: REMARK    1  A    between atoms: O_1  and  N_2
INPUT-LIGAND-PDBQT: REMARK    2  A    between atoms: C_3  and  C_4
INPUT-LIGAND-PDBQT: REMARK    3  A    between atoms: C_4  and  C_5
INPUT-LIGAND-PDBQT: REMARK    4  A    between atoms: C_5  and  C_6
INPUT-LIGAND-PDBQT: REMARK    5  A    between atoms: C_6  and  C_7
INPUT-LIGAND-PDBQT: REMARK    6  A    between atoms: C_7  and  C_8
INPUT-LIGAND-PDBQT: REMARK    7  A    between atoms: C_8  and  C_9
INPUT-LIGAND-PDBQT: REMARK    8  A    between atoms: C_9  and  C_10
INPUT-LIGAND-PDBQT: REMARK    9  A    between atoms: N_11  and  O_12
INPUT-LIGAND-PDBQT: REMARK                            x       y       z     vdW  Elec       q    Type
INPUT-LIGAND-PDBQT: REMARK                         _______ _______ _______ _____ _____    ______ ____
INPUT-LIGAND-PDBQT: ROOT
INPUT-LIGAND-PDBQT: ATOM      1  C   UNL     1       0.018   0.192  -0.445  0.00  0.00    +0.000 C 
INPUT-LIGAND-PDBQT: ENDROOT
INPUT-LIGAND-PDBQT: BRANCH   1   2
INPUT-LIGAND-PDBQT: ATOM      2  C   UNL     1       1.448  -0.303  -0.195  0.00  0.00    +0.000 C 
INPUT-LIGAND-PDBQT: BRANCH   2   3
INPUT-LIGAND-PDBQT: ATOM      3  C   UNL     1       2.010   0.276   1.107  0.00  0.00    +0.000 C 
INPUT-LIGAND-PDBQT: BRANCH   3   5
INPUT-LIGAND-PDBQT: ATOM      4  N   UNL     1       4.513   0.448   0.711  0.00  0.00    +0.000 N 
INPUT-LIGAND-PDBQT: ATOM      5  C   UNL     1       3.409  -0.211   1.337  0.00  0.00    +0.000 C 
INPUT-LIGAND-PDBQT: ATOM      6  O   UNL     1       3.607  -1.229   2.053  0.00  0.00    +0.000 OA
INPUT-LIGAND-PDBQT: ATOM      7  H   UNL     1       4.351   1.221   0.124  0.00  0.00    +0.000 HD
INPUT-LIGAND-PDBQT: BRANCH   4   8
INPUT-LIGAND-PDBQT: ATOM      8  O   UNL     1       5.780   0.016   0.918  0.00  0.00    +0.000 OA
INPUT-LIGAND-PDBQT: ATOM      9  H   UNL     1       6.397   0.575   0.419  0.00  0.00    +0.000 HD
INPUT-LIGAND-PDBQT: ENDBRANCH   4   8
INPUT-LIGAND-PDBQT: ENDBRANCH   3   5
INPUT-LIGAND-PDBQT: ENDBRANCH   2   3
INPUT-LIGAND-PDBQT: ENDBRANCH   1   2
INPUT-LIGAND-PDBQT: BRANCH   1  10
INPUT-LIGAND-PDBQT: ATOM     10  C   UNL     1      -0.556  -0.409  -1.736  0.00  0.00    +0.000 C 
INPUT-LIGAND-PDBQT: BRANCH  10  11
INPUT-LIGAND-PDBQT: ATOM     11  C   UNL     1      -1.901   0.217  -2.148  0.00  0.00    +0.000 C 
INPUT-LIGAND-PDBQT: BRANCH  11  12
INPUT-LIGAND-PDBQT: ATOM     12  C   UNL     1      -3.098  -0.264  -1.309  0.00  0.00    +0.000 C 
INPUT-LIGAND-PDBQT: BRANCH  12  13
INPUT-LIGAND-PDBQT: ATOM     13  C   UNL     1      -3.216   0.462   0.001  0.00  0.00    +0.000 C 
INPUT-LIGAND-PDBQT: ATOM     14  N   UNL     1      -3.185  -0.260   1.236  0.00  0.00    +0.000 N 
INPUT-LIGAND-PDBQT: ATOM     15  O   UNL     1      -3.370   1.713   0.011  0.00  0.00    +0.000 OA
INPUT-LIGAND-PDBQT: ATOM     16  H   UNL     1      -3.089  -1.240   1.226  0.00  0.00    +0.000 HD
INPUT-LIGAND-PDBQT: BRANCH  14  17
INPUT-LIGAND-PDBQT: ATOM     17  O   UNL     1      -3.287   0.393   2.418  0.00  0.00    +0.000 OA
INPUT-LIGAND-PDBQT: ATOM     18  H   UNL     1      -3.375   1.345   2.254  0.00  0.00    +0.000 HD
INPUT-LIGAND-PDBQT: ENDBRANCH  14  17
INPUT-LIGAND-PDBQT: ENDBRANCH  12  13
INPUT-LIGAND-PDBQT: ENDBRANCH  11  12
INPUT-LIGAND-PDBQT: ENDBRANCH  10  11
INPUT-LIGAND-PDBQT: ENDBRANCH   1  10
INPUT-LIGAND-PDBQT: TORSDOF 9
________________________________________________________________________________

Total charge on ligand                               =	+0.000 e
REMARK  Name = 
REMARK  9 active torsions:
REMARK  status: ('A' for Active; 'I' for Inactive)
REMARK    1  A    between atoms: O_1  and  N_2
REMARK    2  A    between atoms: C_3  and  C_4
REMARK    3  A    between atoms: C_4  and  C_5
REMARK    4  A    between atoms: C_5  and  C_6
REMARK    5  A    between atoms: C_6  and  C_7
REMARK    6  A    between atoms: C_7  and  C_8
REMARK    7  A    between atoms: C_8  and  C_9
REMARK    8  A    between atoms: C_9  and  C_10
REMARK    9  A    between atoms: N_11  and  O_12
REMARK                            x       y       z     vdW  Elec       q    Type
REMARK                         _______ _______ _______ _____ _____    ______ ____


Number of Rotatable Bonds in Small Molecule =	9 torsions
Number of atoms in ligand:  18

Number of non-hydrogen atoms in ligand:  14

Number of vibrational degrees of freedom of ligand:  48


Number of torsional degrees of freedom = 9
Estimated loss of torsional free energy upon binding = +2.6847 kcal/mol


DPF> about 0.359 0.163 0.443            # small molecule center

Small molecule center of rotation =	(+0.359, +0.163, +0.443)

DPF> tran0 random                         # initial coordinates/A or random

Initial translation =			(34.152, -28.963, 10.587) Angstroms
DPF> quaternion0 random                   # initial orientation

Each run will begin with a new, random initial orientation.
Initial quaternion,  (x,y,z,w) =	( -0.450, -0.502, -0.369, 0.639 ),
DPF> dihe0 random                         # initial dihedrals (relative) or random

DPF> torsdof 9                            # torsional degrees of freedom

Number of torsional degrees of freedom = 9
Free energy coefficient for torsional degrees of freedom = 0.2983, the factory default value.

Estimated loss of torsional free energy upon binding = +2.6847 kcal/mol

DPF> rmstol 2.0                           # cluster_tolerance/A

Maximum RMS tolerance for conformational cluster analysis = 2.00 Angstroms
DPF> extnrg 1000.0                        # external grid energy

External grid energy (beyond grid map walls) = 1000.00

DPF> e0max 0.0 10000                      # max initial energy; max number of retries

Using user-specified maximum number of retries for simanneal initialization, 10000 retries.
If the simanneal initial energy is greater than e0max, 0.000,
then a new, random initial state will be created.

DPF> ga_pop_size 150                      # number of individuals in population

A population of 150 individuals will be used
DPF> ga_num_evals 2500000                 # maximum number of energy evaluations

There will be at most 2500000 function evaluations used.
DPF> ga_num_generations 27000             # maximum number of generations

The GA will run for at most 27000 generations.
DPF> ga_elitism 1                         # number of top individuals to survive to next generation

The 1 best will be preserved each GA generation.
DPF> ga_mutation_rate 0.02                # rate of gene mutation

The mutation rate is 0.020000.
DPF> ga_crossover_rate 0.8                # rate of crossover

The crossover rate is 0.800000.
DPF> ga_window_size 10                    # 

The GA's selection window is 10 generations.
DPF> ga_cauchy_alpha 0.0                  # Alpha parameter of Cauchy distribution

The alpha parameter (for the Cauchy distribution) is being set to 0.000000.
DPF> ga_cauchy_beta 1.0                   # Beta parameter Cauchy distribution

The beta parameter (for the Cauchy distribution) is being set to 1.000000.
DPF> set_ga                               # set the above parameters for GA or LGA

DPF> sw_max_its 300                       # iterations of Solis & Wets local search

Solis & Wets algorithms will perform at most 300 iterations.
DPF> sw_max_succ 4                        # consecutive successes before changing rho

Solis & Wets algorithms expand rho every 4 in a row successes.
DPF> sw_max_fail 4                        # consecutive failures before changing rho

Solis & Wets algorithms contract rho every 4 in a row failures.
DPF> sw_rho 1.0                           # size of local search space to sample

rho is set to 1.000000.
DPF> sw_lb_rho 0.01                       # lower bound on rho

rho will never get smaller than 0.010000.
DPF> ls_search_freq 0.06                  # probability of performing local search on individual

Local search will be performed with frequency 0.060000.
DPF> set_psw1                             # set the above pseudo-Solis & Wets parameters

Creating a new Local Search object using the pseudo-Solis-Wets algorithm (pSW1) with the current settings.

DPF> unbound_model bound                  # state of unbound ligand

DPF> ga_run 100

centering ligand on specified point: 0.359 0.163 0.443
Furthest true ligand atom from "about" center is 6.052 Angstroms (maxrad).
Number of requested GA dockings = 100 runs
Unbound model to be used is 'same as bound' [AutoDock 4.2 default].

	BEGINNING GENETIC ALGORITHM DOCKING 1 of 100
Run: 1 Seed: 1121085054 1997114283 [ Run 1 of 100 GA/GALS ]
Beginning LAMARCKIAN GENETIC ALGORITHM (LGA), with a maximum of 2500000 energy evaluations.

Final-Value: -12.321


	FINAL GENETIC ALGORITHM DOCKED STATE
	_______________________________________________


Detailed state:  trans 25.643 -16.271 -2.719 quatxyzw -0.033090 -0.994255 0.086249 -0.054068 center 0.359 0.163 0.443 ntor 9 179.6408 -3.4005 -172.9813 -128.3909 16.2409 -65.2522 170.5820 -179.5216 -24.7938
State:	 25.643 -16.271  -2.719  -0.033 -0.996  0.086 -173.801    179.64   -3.40 -172.98 -128.39   16.24  -65.25  170.58 -179.52  -24.79

DOCKED: MODEL        1
DOCKED: USER    Run = 1
DOCKED: USER    DPF = ligand_dock.biased.dpf
DOCKED: USER  
DOCKED: USER    Estimated Free Energy of Binding    =   -8.05 kcal/mol  [=(1)+(2)+(3)-(4)]
DOCKED: USER    Estimated Inhibition Constant, Ki   =    1.27 uM (micromolar)  [Temperature = 298.15 K]
DOCKED: USER    
DOCKED: USER    (1) Final Intermolecular Energy     =  -10.73 kcal/mol
DOCKED: USER        vdW + Hbond + desolv Energy     =  -10.73 kcal/mol
DOCKED: USER        Electrostatic Energy            =   +0.00 kcal/mol
DOCKED: USER    (2) Final Total Internal Energy     =   -1.59 kcal/mol
DOCKED: USER    (3) Torsional Free Energy           =   +2.68 kcal/mol
DOCKED: USER    (4) Unbound System's Energy  [=(2)] =   -1.59 kcal/mol
DOCKED: USER    
DOCKED: USER    
DOCKED: USER    NEWDPF move ligand.pdbqt
DOCKED: USER    NEWDPF about 0.359000 0.163000 0.443000
DOCKED: USER    NEWDPF tran0 25.643064 -16.271270 -2.718945
DOCKED: USER    NEWDPF quaternion0 -0.033090 -0.994255 0.086249 -0.054068
DOCKED: USER    NEWDPF axisangle0 -0.033138 -0.995711 0.086375 -173.801258
DOCKED: USER    NEWDPF quat0 -0.033138 -0.995711 0.086375 -173.801258
DOCKED: USER    NEWDPF dihe0 179.64 -3.40 -172.98 -128.39 16.24 -65.25 170.58 -179.52 -24.79 
DOCKED: USER  keepresnum = 1 
DOCKED: USER  
DOCKED: REMARK  Name = 
DOCKED: REMARK  9 active torsions:
DOCKED: REMARK  status: ('A' for Active; 'I' for Inactive)
DOCKED: REMARK    1  A    between atoms: O_1  and  N_2
DOCKED: REMARK    2  A    between atoms: C_3  and  C_4
DOCKED: REMARK    3  A    between atoms: C_4  and  C_5
DOCKED: REMARK    4  A    between atoms: C_5  and  C_6
DOCKED: REMARK    5  A    between atoms: C_6  and  C_7
DOCKED: REMARK    6  A    between atoms: C_7  and  C_8
DOCKED: REMARK    7  A    between atoms: C_8  and  C_9
DOCKED: REMARK    8  A    between atoms: C_9  and  C_10
DOCKED: REMARK    9  A    between atoms: N_11  and  O_12
DOCKED: REMARK                            x       y       z     vdW  Elec       q    Type
DOCKED: REMARK                         _______ _______ _______ _____ _____    ______ ____
DOCKED: USER                              x       y       z     vdW  Elec       q    Type
DOCKED: USER                           _______ _______ _______ _____ _____    ______ ____
DOCKED: ROOT
DOCKED: ATOM      1  C   UNL     1      26.084 -16.119  -1.889 -0.50 -0.00    +0.000 C 
DOCKED: ENDROOT
DOCKED: BRANCH   1   2
DOCKED: ATOM      2  C   UNL     1      24.609 -16.540  -1.902 -0.54 -0.00    +0.000 C 
DOCKED: BRANCH   2   3
DOCKED: ATOM      3  C   UNL     1      24.282 -17.434  -0.701 -0.72 -0.00    +0.000 C 
DOCKED: BRANCH   3   5
DOCKED: ATOM      4  N   UNL     1      21.753 -17.564  -0.509 -0.73 -0.00    +0.000 N 
DOCKED: ATOM      5  C   UNL     1      22.987 -18.156  -0.921 -0.82 -0.00    +0.000 C 
DOCKED: ATOM      6  O   UNL     1      22.992 -19.307  -1.436 -0.84 -0.00    +0.000 OA
DOCKED: ATOM      7  H   UNL     1      21.757 -16.680  -0.075 -0.05 -0.00    +0.000 HD
DOCKED: BRANCH   4   8
DOCKED: ATOM      8  O   UNL     1      20.579 -18.209  -0.709 -2.22 -0.00    +0.000 OA
DOCKED: ATOM      9  H   UNL     1      20.748 -19.057  -1.148 -0.03 -0.00    +0.000 HD
DOCKED: ENDBRANCH   4   8
DOCKED: ENDBRANCH   3   5
DOCKED: ENDBRANCH   2   3
DOCKED: ENDBRANCH   1   2
DOCKED: BRANCH   1  10
DOCKED: ATOM     10  C   UNL     1      26.765 -16.536  -0.578 -0.47 -0.00    +0.000 C 
DOCKED: BRANCH  10  11
DOCKED: ATOM     11  C   UNL     1      28.302 -16.500  -0.658 -0.33 -0.00    +0.000 C 
DOCKED: BRANCH  11  12
DOCKED: ATOM     12  C   UNL     1      28.938 -15.298   0.063 -0.21 -0.00    +0.000 C 
DOCKED: BRANCH  12  13
DOCKED: ATOM     13  C   UNL     1      27.989 -14.625   1.014 -0.27 -0.00    +0.000 C 
DOCKED: ATOM     14  N   UNL     1      28.189 -14.720   2.427 -0.20 -0.00    +0.000 N 
DOCKED: ATOM     15  O   UNL     1      26.995 -13.994   0.563 -0.32 -0.00    +0.000 OA
DOCKED: ATOM     16  H   UNL     1      28.952 -15.234   2.778 -1.96 -0.00    +0.000 HD
DOCKED: BRANCH  14  17
DOCKED: ATOM     17  O   UNL     1      27.337 -14.111   3.286 -0.50 -0.00    +0.000 OA
DOCKED: ATOM     18  H   UNL     1      26.677 -13.608   2.783 -0.03 -0.00    +0.000 HD
DOCKED: ENDBRANCH  14  17
DOCKED: ENDBRANCH  12  13
DOCKED: ENDBRANCH  11  12
DOCKED: ENDBRANCH  10  11
DOCKED: ENDBRANCH   1  10
DOCKED: TORSDOF 9
DOCKED: TER
DOCKED: ENDMDL
________________________________________________________________________________


	BEGINNING GENETIC ALGORITHM DOCKING 2 of 100
Run: 2 Seed: 1842342871 73415292 [ Run 2 of 100 GA/GALS ]
Beginning LAMARCKIAN GENETIC ALGORITHM (LGA), with a maximum of 2500000 energy evaluations.

Final-Value: -14.038


	FINAL GENETIC ALGORITHM DOCKED STATE
	_______________________________________________


Detailed state:  trans 26.342 -16.261 -1.902 quatxyzw 0.748481 0.424545 0.506387 -0.055766 center 0.359 0.163 0.443 ntor 9 179.2579 6.2735 168.7170 -73.9364 -146.8507 -171.0905 59.3349 -58.8784 96.2262
State:	 26.342 -16.261  -1.902   0.750  0.425  0.507 -173.606    179.26    6.27  168.72  -73.94 -146.85 -171.09   59.33  -58.88   96.23

DOCKED: MODEL        2
DOCKED: USER    Run = 2
DOCKED: USER    DPF = ligand_dock.biased.dpf
DOCKED: USER  
DOCKED: USER    Estimated Free Energy of Binding    =   -9.72 kcal/mol  [=(1)+(2)+(3)-(4)]
DOCKED: USER    Estimated Inhibition Constant, Ki   =   75.41 nM (nanomolar)  [Temperature = 298.15 K]
DOCKED: USER    
DOCKED: USER    (1) Final Intermolecular Energy     =  -12.40 kcal/mol
DOCKED: USER        vdW + Hbond + desolv Energy     =  -12.40 kcal/mol
DOCKED: USER        Electrostatic Energy            =   +0.00 kcal/mol
DOCKED: USER    (2) Final Total Internal Energy     =   -1.64 kcal/mol
DOCKED: USER    (3) Torsional Free Energy           =   +2.68 kcal/mol
DOCKED: USER    (4) Unbound System's Energy  [=(2)] =   -1.64 kcal/mol
DOCKED: USER    
DOCKED: USER    
DOCKED: USER    NEWDPF move ligand.pdbqt
DOCKED: USER    NEWDPF about 0.359000 0.163000 0.443000
DOCKED: USER    NEWDPF tran0 26.341987 -16.260759 -1.902097
DOCKED: USER    NEWDPF quaternion0 0.748481 0.424545 0.506387 -0.055766
DOCKED: USER    NEWDPF axisangle0 0.749648 0.425207 0.507176 -173.606411
DOCKED: USER    NEWDPF quat0 0.749648 0.425207 0.507176 -173.606411
DOCKED: USER    NEWDPF dihe0 179.26 6.27 168.72 -73.94 -146.85 -171.09 59.33 -58.88 96.23 
DOCKED: USER  keepresnum = 1 
DOCKED: USER  
DOCKED: REMARK  Name = 
DOCKED: REMARK  9 active torsions:
DOCKED: REMARK  status: ('A' for Active; 'I' for Inactive)
DOCKED: REMARK    1  A    between atoms: O_1  and  N_2
DOCKED: REMARK    2  A    between atoms: C_3  and  C_4
DOCKED: REMARK    3  A    between atoms: C_4  and  C_5
DOCKED: REMARK    4  A    between atoms: C_5  and  C_6
DOCKED: REMARK    5  A    between atoms: C_6  and  C_7
DOCKED: REMARK    6  A    between atoms: C_7  and  C_8
DOCKED: REMARK    7  A    between atoms: C_8  and  C_9
DOCKED: REMARK    8  A    between atoms: C_9  and  C_10
DOCKED: REMARK    9  A    between atoms: N_11  and  O_12
DOCKED: REMARK                            x       y       z     vdW  Elec       q    Type
DOCKED: REMARK                         _______ _______ _______ _____ _____    ______ ____
DOCKED: USER                              x       y       z     vdW  Elec       q    Type
DOCKED: USER                           _______ _______ _______ _____ _____    ______ ____
DOCKED: ROOT
DOCKED: ATOM      1  C   UNL     1      25.600 -16.823  -1.702 -0.59 -0.00    +0.000 C 
DOCKED: ENDROOT
DOCKED: BRANCH   1   2
DOCKED: ATOM      2  C   UNL     1      25.696 -15.433  -1.061 -0.43 -0.00    +0.000 C 
DOCKED: BRANCH   2   3
DOCKED: ATOM      3  C   UNL     1      26.340 -14.428  -2.021 -0.34 -0.00    +0.000 C 
DOCKED: BRANCH   3   5
DOCKED: ATOM      4  N   UNL     1      26.950 -15.300  -4.327 -0.44 -0.00    +0.000 N 
DOCKED: ATOM      5  C   UNL     1      25.974 -14.748  -3.439 -0.51 -0.00    +0.000 C 
DOCKED: ATOM      6  O   UNL     1      24.813 -14.493  -3.858 -0.98 -0.00    +0.000 OA
DOCKED: ATOM      7  H   UNL     1      27.865 -15.465  -4.005 -0.01 -0.00    +0.000 HD
DOCKED: BRANCH   4   8
DOCKED: ATOM      8  O   UNL     1      26.625 -15.596  -5.608 -1.19 +0.00    +0.000 OA
DOCKED: ATOM      9  H   UNL     1      25.689 -15.386  -5.761 -0.06 +0.00    +0.000 HD
DOCKED: ENDBRANCH   4   8
DOCKED: ENDBRANCH   3   5
DOCKED: ENDBRANCH   2   3
DOCKED: ENDBRANCH   1   2
DOCKED: BRANCH   1  10
DOCKED: ATOM     10  C   UNL     1      24.140 -17.287  -1.798 -0.58 -0.00    +0.000 C 
DOCKED: BRANCH  10  11
DOCKED: ATOM     11  C   UNL     1      23.558 -17.734  -0.444 -0.76 -0.00    +0.000 C 
DOCKED: BRANCH  11  12
DOCKED: ATOM     12  C   UNL     1      22.765 -19.051  -0.509 -0.78 -0.00    +0.000 C 
DOCKED: BRANCH  12  13
DOCKED: ATOM     13  C   UNL     1      21.308 -18.836  -0.806 -0.86 -0.00    +0.000 C 
DOCKED: ATOM     14  N   UNL     1      20.485 -19.928  -1.227 -0.77 -0.00    +0.000 N 
DOCKED: ATOM     15  O   UNL     1      20.814 -17.680  -0.709 -2.17 -0.00    +0.000 OA
DOCKED: ATOM     16  H   UNL     1      20.878 -20.825  -1.326 -0.17 -0.00    +0.000 HD
DOCKED: BRANCH  14  17
DOCKED: ATOM     17  O   UNL     1      19.171 -19.737  -1.492 -1.17 -0.00    +0.000 OA
DOCKED: ATOM     18  H   UNL     1      18.966 -18.790  -1.444 -0.59 -0.00    +0.000 HD
DOCKED: ENDBRANCH  14  17
DOCKED: ENDBRANCH  12  13
DOCKED: ENDBRANCH  11  12
DOCKED: ENDBRANCH  10  11
DOCKED: ENDBRANCH   1  10
DOCKED: TORSDOF 9
DOCKED: TER
DOCKED: ENDMDL
________________________________________________________________________________


	BEGINNING GENETIC ALGORITHM DOCKING 3 of 100
Run: 3 Seed: 1874894835 1323669198 [ Run 3 of 100 GA/GALS ]
Beginning LAMARCKIAN GENETIC ALGORITHM (LGA), with a maximum of 2500000 energy evaluations.

Final-Value: -13.008


	FINAL GENETIC ALGORITHM DOCKED STATE
	_______________________________________________


Detailed state:  trans 23.928 -17.999 0.295 quatxyzw -0.304405 0.293880 0.740535 0.522093 center 0.359 0.163 0.443 ntor 9 -161.0862 4.6773 170.9561 -172.5808 64.7090 -156.4376 125.6387 -42.1494 -9.3469
State:	 23.928 -17.999   0.295  -0.357  0.345  0.868 117.055   -161.09    4.68  170.96 -172.58   64.71 -156.44  125.64  -42.15   -9.35

DOCKED: MODEL        3
DOCKED: USER    Run = 3
DOCKED: USER    DPF = ligand_dock.biased.dpf
DOCKED: USER  
DOCKED: USER    Estimated Free Energy of Binding    =   -8.75 kcal/mol  [=(1)+(2)+(3)-(4)]
DOCKED: USER    Estimated Inhibition Constant, Ki   =  386.88 nM (nanomolar)  [Temperature = 298.15 K]
DOCKED: USER    
DOCKED: USER    (1) Final Intermolecular Energy     =  -11.43 kcal/mol
DOCKED: USER        vdW + Hbond + desolv Energy     =  -11.43 kcal/mol
DOCKED: USER        Electrostatic Energy            =   +0.00 kcal/mol
DOCKED: USER    (2) Final Total Internal Energy     =   -1.58 kcal/mol
DOCKED: USER    (3) Torsional Free Energy           =   +2.68 kcal/mol
DOCKED: USER    (4) Unbound System's Energy  [=(2)] =   -1.58 kcal/mol
DOCKED: USER    
DOCKED: USER    
DOCKED: USER    NEWDPF move ligand.pdbqt
DOCKED: USER    NEWDPF about 0.359000 0.163000 0.443000
DOCKED: USER    NEWDPF tran0 23.928375 -17.999472 0.294681
DOCKED: USER    NEWDPF quaternion0 -0.304405 0.293880 0.740535 0.522093
DOCKED: USER    NEWDPF axisangle0 -0.356911 0.344570 0.868266 117.054564
DOCKED: USER    NEWDPF quat0 -0.356911 0.344570 0.868266 117.054564
DOCKED: USER    NEWDPF dihe0 -161.09 4.68 170.96 -172.58 64.71 -156.44 125.64 -42.15 -9.35 
DOCKED: USER  keepresnum = 1 
DOCKED: USER  
DOCKED: REMARK  Name = 
DOCKED: REMARK  9 active torsions:
DOCKED: REMARK  status: ('A' for Active; 'I' for Inactive)
DOCKED: REMARK    1  A    between atoms: O_1  and  N_2
DOCKED: REMARK    2  A    between atoms: C_3  and  C_4
DOCKED: REMARK    3  A    between atoms: C_4  and  C_5
DOCKED: REMARK    4  A    between atoms: C_5  and  C_6
DOCKED: REMARK    5  A    between atoms: C_6  and  C_7
DOCKED: REMARK    6  A    between atoms: C_7  and  C_8
DOCKED: REMARK    7  A    between atoms: C_8  and  C_9
DOCKED: REMARK    8  A    between atoms: C_9  and  C_10
DOCKED: REMARK    9  A    between atoms: N_11  and  O_12
DOCKED: REMARK                            x       y       z     vdW  Elec       q    Type
DOCKED: REMARK                         _______ _______ _______ _____ _____    ______ ____
DOCKED: USER                              x       y       z     vdW  Elec       q    Type
DOCKED: USER                           _______ _______ _______ _____ _____    ______ ____
DOCKED: ROOT
DOCKED: ATOM      1  C   UNL     1      24.710 -17.787  -0.204 -0.65 -0.00    +0.000 C 
DOCKED: ENDROOT
DOCKED: BRANCH   1   2
DOCKED: ATOM      2  C   UNL     1      23.841 -18.980  -0.623 -0.69 -0.00    +0.000 C 
DOCKED: BRANCH   2   3
DOCKED: ATOM      3  C   UNL     1      22.938 -18.614  -1.804 -0.45 -0.00    +0.000 C 
DOCKED: BRANCH   3   5
DOCKED: ATOM      4  N   UNL     1      20.663 -19.744  -1.823 -0.78 -0.00    +0.000 N 
DOCKED: ATOM      5  C   UNL     1      21.496 -18.662  -1.397 -0.43 -0.00    +0.000 C 
DOCKED: ATOM      6  O   UNL     1      21.008 -17.725  -0.709 -2.13 -0.00    +0.000 OA
DOCKED: ATOM      7  H   UNL     1      21.039 -20.456  -2.389 -0.47 -0.00    +0.000 HD
DOCKED: BRANCH   4   8
DOCKED: ATOM      8  O   UNL     1      19.361 -19.797  -1.455 -1.37 -0.00    +0.000 OA
DOCKED: ATOM      9  H   UNL     1      19.070 -18.915  -1.171 -0.45 -0.00    +0.000 HD
DOCKED: ENDBRANCH   4   8
DOCKED: ENDBRANCH   3   5
DOCKED: ENDBRANCH   2   3
DOCKED: ENDBRANCH   1   2
DOCKED: BRANCH   1  10
DOCKED: ATOM     10  C   UNL     1      25.486 -17.223  -1.403 -0.63 -0.00    +0.000 C 
DOCKED: BRANCH  10  11
DOCKED: ATOM     11  C   UNL     1      26.365 -16.012  -1.038 -0.45 -0.00    +0.000 C 
DOCKED: BRANCH  11  12
DOCKED: ATOM     12  C   UNL     1      25.979 -14.715  -1.770 -0.37 -0.00    +0.000 C 
DOCKED: BRANCH  12  13
DOCKED: ATOM     13  C   UNL     1      26.409 -14.713  -3.210 -0.43 -0.00    +0.000 C 
DOCKED: ATOM     14  N   UNL     1      25.830 -15.631  -4.142 -0.59 -0.00    +0.000 N 
DOCKED: ATOM     15  O   UNL     1      27.306 -13.914  -3.593 -0.25 -0.00    +0.000 OA
DOCKED: ATOM     16  H   UNL     1      25.148 -16.271  -3.836 -0.05 -0.00    +0.000 HD
DOCKED: BRANCH  14  17
DOCKED: ATOM     17  O   UNL     1      26.214 -15.627  -5.441 -1.19 +0.00    +0.000 OA
DOCKED: ATOM     18  H   UNL     1      26.940 -14.995  -5.561 -0.05 +0.00    +0.000 HD
DOCKED: ENDBRANCH  14  17
DOCKED: ENDBRANCH  12  13
DOCKED: ENDBRANCH  11  12
DOCKED: ENDBRANCH  10  11
DOCKED: ENDBRANCH   1  10
DOCKED: TORSDOF 9
DOCKED: TER
DOCKED: ENDMDL
________________________________________________________________________________


	BEGINNING GENETIC ALGORITHM DOCKING 4 of 100
Run: 4 Seed: 1170424085 1968462948 [ Run 4 of 100 GA/GALS ]
Beginning LAMARCKIAN GENETIC ALGORITHM (LGA), with a maximum of 2500000 energy evaluations.

Final-Value: -13.587


	FINAL GENETIC ALGORITHM DOCKED STATE
	_______________________________________________


Detailed state:  trans 24.664 -18.537 -0.387 quatxyzw -0.026712 0.382978 -0.923177 -0.018945 center 0.359 0.163 0.443 ntor 9 166.0874 178.1374 -168.4864 149.7236 -4.3755 61.3353 -64.1201 -62.5909 -74.9459
State:	 24.664 -18.537  -0.387  -0.027  0.383 -0.923 -177.829    166.09  178.14 -168.49  149.72   -4.38   61.34  -64.12  -62.59  -74.95

DOCKED: MODEL        4
DOCKED: USER    Run = 4
DOCKED: USER    DPF = ligand_dock.biased.dpf
DOCKED: USER  
DOCKED: USER    Estimated Free Energy of Binding    =   -9.98 kcal/mol  [=(1)+(2)+(3)-(4)]
DOCKED: USER    Estimated Inhibition Constant, Ki   =   48.33 nM (nanomolar)  [Temperature = 298.15 K]
DOCKED: USER    
DOCKED: USER    (1) Final Intermolecular Energy     =  -12.67 kcal/mol
DOCKED: USER        vdW + Hbond + desolv Energy     =  -12.67 kcal/mol
DOCKED: USER        Electrostatic Energy            =   +0.00 kcal/mol
DOCKED: USER    (2) Final Total Internal Energy     =   -0.92 kcal/mol
DOCKED: USER    (3) Torsional Free Energy           =   +2.68 kcal/mol
DOCKED: USER    (4) Unbound System's Energy  [=(2)] =   -0.92 kcal/mol
DOCKED: USER    
DOCKED: USER    
DOCKED: USER    NEWDPF move ligand.pdbqt
DOCKED: USER    NEWDPF about 0.359000 0.163000 0.443000
DOCKED: USER    NEWDPF tran0 24.664216 -18.537036 -0.386545
DOCKED: USER    NEWDPF quaternion0 -0.026712 0.382978 -0.923177 -0.018945
DOCKED: USER    NEWDPF axisangle0 -0.026717 0.383047 -0.923342 -177.828905
DOCKED: USER    NEWDPF quat0 -0.026717 0.383047 -0.923342 -177.828905
DOCKED: USER    NEWDPF dihe0 166.09 178.14 -168.49 149.72 -4.38 61.34 -64.12 -62.59 -74.95 
DOCKED: USER  keepresnum = 1 
DOCKED: USER  
DOCKED: REMARK  Name = 
DOCKED: REMARK  9 active torsions:
DOCKED: REMARK  status: ('A' for Active; 'I' for Inactive)
DOCKED: REMARK    1  A    between atoms: O_1  and  N_2
DOCKED: REMARK    2  A    between atoms: C_3  and  C_4
DOCKED: REMARK    3  A    between atoms: C_4  and  C_5
DOCKED: REMARK    4  A    between atoms: C_5  and  C_6
DOCKED: REMARK    5  A    between atoms: C_6  and  C_7
DOCKED: REMARK    6  A    between atoms: C_7  and  C_8
DOCKED: REMARK    7  A    between atoms: C_8  and  C_9
DOCKED: REMARK    8  A    between atoms: C_9  and  C_10
DOCKED: REMARK    9  A    between atoms: N_11  and  O_12
DOCKED: REMARK                            x       y       z     vdW  Elec       q    Type
DOCKED: REMARK                         _______ _______ _______ _____ _____    ______ ____
DOCKED: USER                              x       y       z     vdW  Elec       q    Type
DOCKED: USER                           _______ _______ _______ _____ _____    ______ ____
DOCKED: ROOT
DOCKED: ATOM      1  C   UNL     1      24.948 -17.912  -1.045 -0.71 -0.00    +0.000 C 
DOCKED: ENDROOT
DOCKED: BRANCH   1   2
DOCKED: ATOM      2  C   UNL     1      23.530 -17.818  -0.469 -0.77 -0.00    +0.000 C 
DOCKED: BRANCH   2   3
DOCKED: ATOM      3  C   UNL     1      22.550 -18.673  -1.278 -0.76 -0.00    +0.000 C 
DOCKED: BRANCH   3   5
DOCKED: ATOM      4  N   UNL     1      20.875 -19.562   0.411 -0.67 -0.00    +0.000 N 
DOCKED: ATOM      5  C   UNL     1      21.191 -18.653  -0.647 -0.85 -0.00    +0.000 C 
DOCKED: ATOM      6  O   UNL     1      20.312 -17.859  -1.078 -2.18 -0.00    +0.000 OA
DOCKED: ATOM      7  H   UNL     1      21.553 -20.205   0.721 -0.54 -0.00    +0.000 HD
DOCKED: BRANCH   4   8
DOCKED: ATOM      8  O   UNL     1      19.651 -19.547   0.989 -0.77 -0.00    +0.000 OA
DOCKED: ATOM      9  H   UNL     1      19.184 -18.735   0.736 -0.29 -0.00    +0.000 HD
DOCKED: ENDBRANCH   4   8
DOCKED: ENDBRANCH   3   5
DOCKED: ENDBRANCH   2   3
DOCKED: ENDBRANCH   1   2
DOCKED: BRANCH   1  10
DOCKED: ATOM     10  C   UNL     1      25.430 -16.544  -1.550 -0.59 -0.00    +0.000 C 
DOCKED: BRANCH  10  11
DOCKED: ATOM     11  C   UNL     1      26.610 -15.981  -0.737 -0.43 -0.00    +0.000 C 
DOCKED: BRANCH  11  12
DOCKED: ATOM     12  C   UNL     1      26.506 -14.474  -0.445 -0.33 -0.00    +0.000 C 
DOCKED: BRANCH  12  13
DOCKED: ATOM     13  C   UNL     1      27.016 -14.113   0.922 -0.28 -0.00    +0.000 C 
DOCKED: ATOM     14  N   UNL     1      28.030 -14.903   1.550 -0.23 -0.00    +0.000 N 
DOCKED: ATOM     15  O   UNL     1      26.529 -13.121   1.529 -0.39 -0.00    +0.000 OA
DOCKED: ATOM     16  H   UNL     1      28.392 -15.691   1.085 -0.68 -0.00    +0.000 HD
DOCKED: BRANCH  14  17
DOCKED: ATOM     17  O   UNL     1      28.494 -14.577   2.780 -0.33 -0.00    +0.000 OA
DOCKED: ATOM     18  H   UNL     1      29.150 -15.233   3.061 -1.86 -0.00    +0.000 HD
DOCKED: ENDBRANCH  14  17
DOCKED: ENDBRANCH  12  13
DOCKED: ENDBRANCH  11  12
DOCKED: ENDBRANCH  10  11
DOCKED: ENDBRANCH   1  10
DOCKED: TORSDOF 9
DOCKED: TER
DOCKED: ENDMDL
________________________________________________________________________________


	BEGINNING GENETIC ALGORITHM DOCKING 5 of 100
Run: 5 Seed: 1758812446 1947665817 [ Run 5 of 100 GA/GALS ]
Beginning LAMARCKIAN GENETIC ALGORITHM (LGA), with a maximum of 2500000 energy evaluations.

Final-Value: -13.692


	FINAL GENETIC ALGORITHM DOCKED STATE
	_______________________________________________


Detailed state:  trans 23.304 -17.471 -1.372 quatxyzw -0.427066 0.809866 -0.079839 0.394154 center 0.359 0.163 0.443 ntor 9 -174.6975 179.4252 109.1188 -127.8747 97.2950 -92.8894 39.5364 -108.2448 -72.1591
State:	 23.304 -17.471  -1.372  -0.465  0.881 -0.087 133.574   -174.70  179.43  109.12 -127.87   97.29  -92.89   39.54 -108.24  -72.16

DOCKED: MODEL        5
DOCKED: USER    Run = 5
DOCKED: USER    DPF = ligand_dock.biased.dpf
DOCKED: USER  
DOCKED: USER    Estimated Free Energy of Binding    =   -9.98 kcal/mol  [=(1)+(2)+(3)-(4)]
DOCKED: USER    Estimated Inhibition Constant, Ki   =   48.00 nM (nanomolar)  [Temperature = 298.15 K]
DOCKED: USER    
DOCKED: USER    (1) Final Intermolecular Energy     =  -12.67 kcal/mol
DOCKED: USER        vdW + Hbond + desolv Energy     =  -12.67 kcal/mol
DOCKED: USER        Electrostatic Energy            =   +0.00 kcal/mol
DOCKED: USER    (2) Final Total Internal Energy     =   -1.02 kcal/mol
DOCKED: USER    (3) Torsional Free Energy           =   +2.68 kcal/mol
DOCKED: USER    (4) Unbound System's Energy  [=(2)] =   -1.02 kcal/mol
DOCKED: USER    
DOCKED: USER    
DOCKED: USER    NEWDPF move ligand.pdbqt
DOCKED: USER    NEWDPF about 0.359000 0.163000 0.443000
DOCKED: USER    NEWDPF tran0 23.303737 -17.470933 -1.372391
DOCKED: USER    NEWDPF quaternion0 -0.427066 0.809866 -0.079839 0.394154
DOCKED: USER    NEWDPF axisangle0 -0.464685 0.881205 -0.086871 133.573584
DOCKED: USER    NEWDPF quat0 -0.464685 0.881205 -0.086871 133.573584
DOCKED: USER    NEWDPF dihe0 -174.70 179.43 109.12 -127.87 97.29 -92.89 39.54 -108.24 -72.16 
DOCKED: USER  keepresnum = 1 
DOCKED: USER  
DOCKED: REMARK  Name = 
DOCKED: REMARK  9 active torsions:
DOCKED: REMARK  status: ('A' for Active; 'I' for Inactive)
DOCKED: REMARK    1  A    between atoms: O_1  and  N_2
DOCKED: REMARK    2  A    between atoms: C_3  and  C_4
DOCKED: REMARK    3  A    between atoms: C_4  and  C_5
DOCKED: REMARK    4  A    between atoms: C_5  and  C_6
DOCKED: REMARK    5  A    between atoms: C_6  and  C_7
DOCKED: REMARK    6  A    between atoms: C_7  and  C_8
DOCKED: REMARK    7  A    between atoms: C_8  and  C_9
DOCKED: REMARK    8  A    between atoms: C_9  and  C_10
DOCKED: REMARK    9  A    between atoms: N_11  and  O_12
DOCKED: REMARK                            x       y       z     vdW  Elec       q    Type
DOCKED: REMARK                         _______ _______ _______ _____ _____    ______ ____
DOCKED: USER                              x       y       z     vdW  Elec       q    Type
DOCKED: USER                           _______ _______ _______ _____ _____    ______ ____
DOCKED: ROOT
DOCKED: ATOM      1  C   UNL     1      23.899 -16.825  -1.007 -0.61 -0.00    +0.000 C 
DOCKED: ENDROOT
DOCKED: BRANCH   1   2
DOCKED: ATOM      2  C   UNL     1      23.666 -18.148  -0.268 -0.78 -0.00    +0.000 C 
DOCKED: BRANCH   2   3
DOCKED: ATOM      3  C   UNL     1      22.980 -19.172  -1.178 -0.76 -0.00    +0.000 C 
DOCKED: BRANCH   3   5
DOCKED: ATOM      4  N   UNL     1      20.627 -19.931  -1.760 -0.70 -0.00    +0.000 N 
DOCKED: ATOM      5  C   UNL     1      21.499 -18.944  -1.202 -0.77 -0.00    +0.000 C 
DOCKED: ATOM      6  O   UNL     1      21.026 -17.861  -0.764 -2.13 -0.00    +0.000 OA
DOCKED: ATOM      7  H   UNL     1      21.003 -20.760  -2.133 -0.36 -0.00    +0.000 HD
DOCKED: BRANCH   4   8
DOCKED: ATOM      8  O   UNL     1      19.287 -19.733  -1.780 -1.22 -0.00    +0.000 OA
DOCKED: ATOM      9  H   UNL     1      19.088 -18.840  -1.455 -0.57 -0.00    +0.000 HD
DOCKED: ENDBRANCH   4   8
DOCKED: ENDBRANCH   3   5
DOCKED: ENDBRANCH   2   3
DOCKED: ENDBRANCH   1   2
DOCKED: BRANCH   1  10
DOCKED: ATOM     10  C   UNL     1      25.275 -16.236  -0.663 -0.43 -0.00    +0.000 C 
DOCKED: BRANCH  10  11
DOCKED: ATOM     11  C   UNL     1      26.213 -16.143  -1.881 -0.49 -0.00    +0.000 C 
DOCKED: BRANCH  11  12
DOCKED: ATOM     12  C   UNL     1      27.561 -15.464  -1.581 -0.29 -0.00    +0.000 C 
DOCKED: BRANCH  12  13
DOCKED: ATOM     13  C   UNL     1      27.583 -14.788  -0.240 -0.27 -0.00    +0.000 C 
DOCKED: ATOM     14  N   UNL     1      28.387 -15.311   0.823 -0.18 -0.00    +0.000 N 
DOCKED: ATOM     15  O   UNL     1      26.869 -13.769  -0.041 -0.30 -0.00    +0.000 OA
DOCKED: ATOM     16  H   UNL     1      28.926 -16.121   0.673 -0.58 -0.00    +0.000 HD
DOCKED: BRANCH  14  17
DOCKED: ATOM     17  O   UNL     1      28.412 -14.701   2.031 -0.27 -0.00    +0.000 OA
DOCKED: ATOM     18  H   UNL     1      28.997 -15.192   2.629 -1.96 -0.00    +0.000 HD
DOCKED: ENDBRANCH  14  17
DOCKED: ENDBRANCH  12  13
DOCKED: ENDBRANCH  11  12
DOCKED: ENDBRANCH  10  11
DOCKED: ENDBRANCH   1  10
DOCKED: TORSDOF 9
DOCKED: TER
DOCKED: ENDMDL
________________________________________________________________________________


	BEGINNING GENETIC ALGORITHM DOCKING 6 of 100
Run: 6 Seed: 1323059003 1686907080 [ Run 6 of 100 GA/GALS ]
Beginning LAMARCKIAN GENETIC ALGORITHM (LGA), with a maximum of 2500000 energy evaluations.

Final-Value: -13.769


	FINAL GENETIC ALGORITHM DOCKED STATE
	_______________________________________________


Detailed state:  trans 24.521 -17.920 -0.493 quatxyzw -0.233936 -0.112045 0.931419 0.255299 center 0.359 0.163 0.443 ntor 9 -180.0000 -163.8292 12.2986 -142.1008 -6.6414 -34.0284 28.3248 -46.3169 18.5924
State:	 24.521 -17.920  -0.493  -0.242 -0.116  0.963 150.417   -180.00 -163.83   12.30 -142.10   -6.64  -34.03   28.32  -46.32   18.59

DOCKED: MODEL        6
DOCKED: USER    Run = 6
DOCKED: USER    DPF = ligand_dock.biased.dpf
DOCKED: USER  
DOCKED: USER    Estimated Free Energy of Binding    =  -10.04 kcal/mol  [=(1)+(2)+(3)-(4)]
DOCKED: USER    Estimated Inhibition Constant, Ki   =   43.39 nM (nanomolar)  [Temperature = 298.15 K]
DOCKED: USER    
DOCKED: USER    (1) Final Intermolecular Energy     =  -12.73 kcal/mol
DOCKED: USER        vdW + Hbond + desolv Energy     =  -12.73 kcal/mol
DOCKED: USER        Electrostatic Energy            =   +0.00 kcal/mol
DOCKED: USER    (2) Final Total Internal Energy     =   -1.04 kcal/mol
DOCKED: USER    (3) Torsional Free Energy           =   +2.68 kcal/mol
DOCKED: USER    (4) Unbound System's Energy  [=(2)] =   -1.04 kcal/mol
DOCKED: USER    
DOCKED: USER    
DOCKED: USER    NEWDPF move ligand.pdbqt
DOCKED: USER    NEWDPF about 0.359000 0.163000 0.443000
DOCKED: USER    NEWDPF tran0 24.521356 -17.919980 -0.493389
DOCKED: USER    NEWDPF quaternion0 -0.233936 -0.112045 0.931419 0.255299
DOCKED: USER    NEWDPF axisangle0 -0.241954 -0.115886 0.963343 150.417387
DOCKED: USER    NEWDPF quat0 -0.241954 -0.115886 0.963343 150.417387
DOCKED: USER    NEWDPF dihe0 -180.00 -163.83 12.30 -142.10 -6.64 -34.03 28.32 -46.32 18.59 
DOCKED: USER  keepresnum = 1 
DOCKED: USER  
DOCKED: REMARK  Name = 
DOCKED: REMARK  9 active torsions:
DOCKED: REMARK  status: ('A' for Active; 'I' for Inactive)
DOCKED: REMARK    1  A    between atoms: O_1  and  N_2
DOCKED: REMARK    2  A    between atoms: C_3  and  C_4
DOCKED: REMARK    3  A    between atoms: C_4  and  C_5
DOCKED: REMARK    4  A    between atoms: C_5  and  C_6
DOCKED: REMARK    5  A    between atoms: C_6  and  C_7
DOCKED: REMARK    6  A    between atoms: C_7  and  C_8
DOCKED: REMARK    7  A    between atoms: C_8  and  C_9
DOCKED: REMARK    8  A    between atoms: C_9  and  C_10
DOCKED: REMARK    9  A    between atoms: N_11  and  O_12
DOCKED: REMARK                            x       y       z     vdW  Elec       q    Type
DOCKED: REMARK                         _______ _______ _______ _____ _____    ______ ____
DOCKED: USER                              x       y       z     vdW  Elec       q    Type
DOCKED: USER                           _______ _______ _______ _____ _____    ______ ____
DOCKED: ROOT
DOCKED: ATOM      1  C   UNL     1      25.132 -17.509  -1.096 -0.68 -0.00    +0.000 C 
DOCKED: ENDROOT
DOCKED: BRANCH   1   2
DOCKED: ATOM      2  C   UNL     1      23.689 -17.778  -1.541 -0.68 -0.00    +0.000 C 
DOCKED: BRANCH   2   3
DOCKED: ATOM      3  C   UNL     1      22.861 -18.365  -0.393 -0.83 -0.00    +0.000 C 
DOCKED: BRANCH   3   5
DOCKED: ATOM      4  N   UNL     1      20.907 -19.712  -1.298 -0.78 -0.00    +0.000 N 
DOCKED: ATOM      5  C   UNL     1      21.420 -18.477  -0.790 -0.83 -0.00    +0.000 C 
DOCKED: ATOM      6  O   UNL     1      20.669 -17.468  -0.713 -2.06 +0.00    +0.000 OA
DOCKED: ATOM      7  H   UNL     1      21.506 -20.488  -1.390 -0.26 -0.00    +0.000 HD
DOCKED: BRANCH   4   8
DOCKED: ATOM      8  O   UNL     1      19.605 -19.822  -1.654 -1.62 -0.00    +0.000 OA
DOCKED: ATOM      9  H   UNL     1      19.157 -18.975  -1.503 -0.54 -0.00    +0.000 HD
DOCKED: ENDBRANCH   4   8
DOCKED: ENDBRANCH   3   5
DOCKED: ENDBRANCH   2   3
DOCKED: ENDBRANCH   1   2
DOCKED: BRANCH   1  10
DOCKED: ATOM     10  C   UNL     1      25.740 -16.335  -1.877 -0.55 -0.00    +0.000 C 
DOCKED: BRANCH  10  11
DOCKED: ATOM     11  C   UNL     1      27.272 -16.420  -2.001 -0.38 -0.00    +0.000 C 
DOCKED: BRANCH  11  12
DOCKED: ATOM     12  C   UNL     1      28.015 -15.201  -1.427 -0.23 -0.00    +0.000 C 
DOCKED: BRANCH  12  13
DOCKED: ATOM     13  C   UNL     1      27.524 -14.813  -0.062 -0.29 -0.00    +0.000 C 
DOCKED: ATOM     14  N   UNL     1      28.205 -15.268   1.111 -0.13 -0.00    +0.000 N 
DOCKED: ATOM     15  O   UNL     1      26.488 -14.103   0.052 -0.36 -0.00    +0.000 OA
DOCKED: ATOM     16  H   UNL     1      29.000 -15.843   1.022 -0.77 -0.00    +0.000 HD
DOCKED: BRANCH  14  17
DOCKED: ATOM     17  O   UNL     1      27.766 -14.916   2.343 -0.32 -0.00    +0.000 OA
DOCKED: ATOM     18  H   UNL     1      28.464 -15.085   2.995 -1.41 -0.00    +0.000 HD
DOCKED: ENDBRANCH  14  17
DOCKED: ENDBRANCH  12  13
DOCKED: ENDBRANCH  11  12
DOCKED: ENDBRANCH  10  11
DOCKED: ENDBRANCH   1  10
DOCKED: TORSDOF 9
DOCKED: TER
DOCKED: ENDMDL
________________________________________________________________________________


	BEGINNING GENETIC ALGORITHM DOCKING 7 of 100
Run: 7 Seed: 337804000 1589139543 [ Run 7 of 100 GA/GALS ]
Beginning LAMARCKIAN GENETIC ALGORITHM (LGA), with a maximum of 2500000 energy evaluations.

Final-Value: -13.165


	FINAL GENETIC ALGORITHM DOCKED STATE
	_______________________________________________


Detailed state:  trans 25.794 -15.132 -1.625 quatxyzw -0.262970 0.372012 0.249302 -0.854577 center 0.359 0.163 0.443 ntor 9 173.8106 9.3869 15.7360 -95.5069 169.0036 171.9333 104.3969 -105.9377 -42.1542
State:	 25.794 -15.132  -1.625  -0.506  0.716  0.480 -62.574    173.81    9.39   15.74  -95.51  169.00  171.93  104.40 -105.94  -42.15

DOCKED: MODEL        7
DOCKED: USER    Run = 7
DOCKED: USER    DPF = ligand_dock.biased.dpf
DOCKED: USER  
DOCKED: USER    Estimated Free Energy of Binding    =   -8.86 kcal/mol  [=(1)+(2)+(3)-(4)]
DOCKED: USER    Estimated Inhibition Constant, Ki   =  320.29 nM (nanomolar)  [Temperature = 298.15 K]
DOCKED: USER    
DOCKED: USER    (1) Final Intermolecular Energy     =  -11.54 kcal/mol
DOCKED: USER        vdW + Hbond + desolv Energy     =  -11.54 kcal/mol
DOCKED: USER        Electrostatic Energy            =   +0.00 kcal/mol
DOCKED: USER    (2) Final Total Internal Energy     =   -1.62 kcal/mol
DOCKED: USER    (3) Torsional Free Energy           =   +2.68 kcal/mol
DOCKED: USER    (4) Unbound System's Energy  [=(2)] =   -1.62 kcal/mol
DOCKED: USER    
DOCKED: USER    
DOCKED: USER    NEWDPF move ligand.pdbqt
DOCKED: USER    NEWDPF about 0.359000 0.163000 0.443000
DOCKED: USER    NEWDPF tran0 25.794234 -15.132273 -1.624681
DOCKED: USER    NEWDPF quaternion0 -0.262970 0.372012 0.249302 -0.854577
DOCKED: USER    NEWDPF axisangle0 -0.506370 0.716339 0.480050 -62.573904
DOCKED: USER    NEWDPF quat0 -0.506370 0.716339 0.480050 -62.573904
DOCKED: USER    NEWDPF dihe0 173.81 9.39 15.74 -95.51 169.00 171.93 104.40 -105.94 -42.15 
DOCKED: USER  keepresnum = 1 
DOCKED: USER  
DOCKED: REMARK  Name = 
DOCKED: REMARK  9 active torsions:
DOCKED: REMARK  status: ('A' for Active; 'I' for Inactive)
DOCKED: REMARK    1  A    between atoms: O_1  and  N_2
DOCKED: REMARK    2  A    between atoms: C_3  and  C_4
DOCKED: REMARK    3  A    between atoms: C_4  and  C_5
DOCKED: REMARK    4  A    between atoms: C_5  and  C_6
DOCKED: REMARK    5  A    between atoms: C_6  and  C_7
DOCKED: REMARK    6  A    between atoms: C_7  and  C_8
DOCKED: REMARK    7  A    between atoms: C_8  and  C_9
DOCKED: REMARK    8  A    between atoms: C_9  and  C_10
DOCKED: REMARK    9  A    between atoms: N_11  and  O_12
DOCKED: REMARK                            x       y       z     vdW  Elec       q    Type
DOCKED: REMARK                         _______ _______ _______ _____ _____    ______ ____
DOCKED: USER                              x       y       z     vdW  Elec       q    Type
DOCKED: USER                           _______ _______ _______ _____ _____    ______ ____
DOCKED: ROOT
DOCKED: ATOM      1  C   UNL     1      25.124 -15.753  -1.890 -0.47 -0.00    +0.000 C 
DOCKED: ENDROOT
DOCKED: BRANCH   1   2
DOCKED: ATOM      2  C   UNL     1      26.414 -15.630  -2.710 -0.46 -0.00    +0.000 C 
DOCKED: BRANCH   2   3
DOCKED: ATOM      3  C   UNL     1      27.564 -16.392  -2.043 -0.35 -0.00    +0.000 C 
DOCKED: BRANCH   3   5
DOCKED: ATOM      4  N   UNL     1      26.734 -18.157  -0.416 -0.56 -0.00    +0.000 N 
DOCKED: ATOM      5  C   UNL     1      27.177 -16.819  -0.659 -0.46 -0.00    +0.000 C 
DOCKED: ATOM      6  O   UNL     1      27.205 -15.984   0.284 -0.40 -0.00    +0.000 OA
DOCKED: ATOM      7  H   UNL     1      26.679 -18.796  -1.162 -0.05 -0.00    +0.000 HD
DOCKED: BRANCH   4   8
DOCKED: ATOM      8  O   UNL     1      26.387 -18.551   0.833 -0.67 -0.00    +0.000 OA
DOCKED: ATOM      9  H   UNL     1      26.588 -17.840   1.463 -0.02 -0.00    +0.000 HD
DOCKED: ENDBRANCH   4   8
DOCKED: ENDBRANCH   3   5
DOCKED: ENDBRANCH   2   3
DOCKED: ENDBRANCH   1   2
DOCKED: BRANCH   1  10
DOCKED: ATOM     10  C   UNL     1      24.502 -17.148  -2.046 -0.52 -0.00    +0.000 C 
DOCKED: BRANCH  10  11
DOCKED: ATOM     11  C   UNL     1      23.788 -17.638  -0.773 -0.76 -0.00    +0.000 C 
DOCKED: BRANCH  11  12
DOCKED: ATOM     12  C   UNL     1      23.119 -19.016  -0.922 -0.81 -0.00    +0.000 C 
DOCKED: BRANCH  12  13
DOCKED: ATOM     13  C   UNL     1      21.621 -18.926  -1.005 -0.84 -0.00    +0.000 C 
DOCKED: ATOM     14  N   UNL     1      20.889 -19.805  -1.865 -0.60 -0.00    +0.000 N 
DOCKED: ATOM     15  O   UNL     1      21.008 -18.053  -0.334 -1.92 -0.00    +0.000 OA
DOCKED: ATOM     16  H   UNL     1      21.371 -20.470  -2.408 -0.54 -0.00    +0.000 HD
DOCKED: BRANCH  14  17
DOCKED: ATOM     17  O   UNL     1      19.539 -19.729  -1.939 -1.64 -0.00    +0.000 OA
DOCKED: ATOM     18  H   UNL     1      19.234 -18.938  -1.467 -0.48 -0.00    +0.000 HD
DOCKED: ENDBRANCH  14  17
DOCKED: ENDBRANCH  12  13
DOCKED: ENDBRANCH  11  12
DOCKED: ENDBRANCH  10  11
DOCKED: ENDBRANCH   1  10
DOCKED: TORSDOF 9
DOCKED: TER
DOCKED: ENDMDL
________________________________________________________________________________


	BEGINNING GENETIC ALGORITHM DOCKING 8 of 100
Run: 8 Seed: 1964606922 1012862516 [ Run 8 of 100 GA/GALS ]
Beginning LAMARCKIAN GENETIC ALGORITHM (LGA), with a maximum of 2500000 energy evaluations.

Final-Value: -13.961


	FINAL GENETIC ALGORITHM DOCKED STATE
	_______________________________________________


Detailed state:  trans 22.600 -17.796 -0.971 quatxyzw -0.466646 0.770514 0.213883 0.377894 center 0.359 0.163 0.443 ntor 9 -160.5744 -0.7589 160.9524 54.3854 97.0542 127.1866 39.6213 170.7522 -87.6459
State:	 22.600 -17.796  -0.971  -0.504  0.832  0.231 135.593   -160.57   -0.76  160.95   54.39   97.05  127.19   39.62  170.75  -87.65

DOCKED: MODEL        8
DOCKED: USER    Run = 8
DOCKED: USER    DPF = ligand_dock.biased.dpf
DOCKED: USER  
DOCKED: USER    Estimated Free Energy of Binding    =   -9.80 kcal/mol  [=(1)+(2)+(3)-(4)]
DOCKED: USER    Estimated Inhibition Constant, Ki   =   65.24 nM (nanomolar)  [Temperature = 298.15 K]
DOCKED: USER    
DOCKED: USER    (1) Final Intermolecular Energy     =  -12.49 kcal/mol
DOCKED: USER        vdW + Hbond + desolv Energy     =  -12.49 kcal/mol
DOCKED: USER        Electrostatic Energy            =   +0.00 kcal/mol
DOCKED: USER    (2) Final Total Internal Energy     =   -1.47 kcal/mol
DOCKED: USER    (3) Torsional Free Energy           =   +2.68 kcal/mol
DOCKED: USER    (4) Unbound System's Energy  [=(2)] =   -1.47 kcal/mol
DOCKED: USER    
DOCKED: USER    
DOCKED: USER    NEWDPF move ligand.pdbqt
DOCKED: USER    NEWDPF about 0.359000 0.163000 0.443000
DOCKED: USER    NEWDPF tran0 22.599598 -17.795954 -0.970886
DOCKED: USER    NEWDPF quaternion0 -0.466646 0.770514 0.213883 0.377894
DOCKED: USER    NEWDPF axisangle0 -0.504020 0.832224 0.231012 135.593361
DOCKED: USER    NEWDPF quat0 -0.504020 0.832224 0.231012 135.593361
DOCKED: USER    NEWDPF dihe0 -160.57 -0.76 160.95 54.39 97.05 127.19 39.62 170.75 -87.65 
DOCKED: USER  keepresnum = 1 
DOCKED: USER  
DOCKED: REMARK  Name = 
DOCKED: REMARK  9 active torsions:
DOCKED: REMARK  status: ('A' for Active; 'I' for Inactive)
DOCKED: REMARK    1  A    between atoms: O_1  and  N_2
DOCKED: REMARK    2  A    between atoms: C_3  and  C_4
DOCKED: REMARK    3  A    between atoms: C_4  and  C_5
DOCKED: REMARK    4  A    between atoms: C_5  and  C_6
DOCKED: REMARK    5  A    between atoms: C_6  and  C_7
DOCKED: REMARK    6  A    between atoms: C_7  and  C_8
DOCKED: REMARK    7  A    between atoms: C_8  and  C_9
DOCKED: REMARK    8  A    between atoms: C_9  and  C_10
DOCKED: REMARK    9  A    between atoms: N_11  and  O_12
DOCKED: REMARK                            x       y       z     vdW  Elec       q    Type
DOCKED: REMARK                         _______ _______ _______ _____ _____    ______ ____
DOCKED: USER                              x       y       z     vdW  Elec       q    Type
DOCKED: USER                           _______ _______ _______ _____ _____    ______ ____
DOCKED: ROOT
DOCKED: ATOM      1  C   UNL     1      23.373 -17.461  -0.528 -0.73 -0.00    +0.000 C 
DOCKED: ENDROOT
DOCKED: BRANCH   1   2
DOCKED: ATOM      2  C   UNL     1      23.055 -18.961  -0.475 -0.78 -0.00    +0.000 C 
DOCKED: BRANCH   2   3
DOCKED: ATOM      3  C   UNL     1      22.006 -19.338  -1.525 -0.54 -0.00    +0.000 C 
DOCKED: BRANCH   3   5
DOCKED: ATOM      4  N   UNL     1      19.699 -20.117  -0.802 -0.71 -0.00    +0.000 N 
DOCKED: ATOM      5  C   UNL     1      20.626 -19.049  -1.016 -0.89 -0.00    +0.000 C 
DOCKED: ATOM      6  O   UNL     1      20.270 -17.857  -0.814 -2.20 -0.00    +0.000 OA
DOCKED: ATOM      7  H   UNL     1      19.969 -21.044  -0.994 -0.52 -0.00    +0.000 HD
DOCKED: BRANCH   4   8
DOCKED: ATOM      8  O   UNL     1      18.452 -19.864  -0.337 -0.84 -0.00    +0.000 OA
DOCKED: ATOM      9  H   UNL     1      18.235 -18.930  -0.488 -0.45 -0.00    +0.000 HD
DOCKED: ENDBRANCH   4   8
DOCKED: ENDBRANCH   3   5
DOCKED: ENDBRANCH   2   3
DOCKED: ENDBRANCH   1   2
DOCKED: BRANCH   1  10
DOCKED: ATOM     10  C   UNL     1      24.878 -17.210  -0.354 -0.54 -0.00    +0.000 C 
DOCKED: BRANCH  10  11
DOCKED: ATOM     11  C   UNL     1      25.601 -16.928  -1.684 -0.59 -0.00    +0.000 C 
DOCKED: BRANCH  11  12
DOCKED: ATOM     12  C   UNL     1      25.751 -15.432  -2.009 -0.48 -0.00    +0.000 C 
DOCKED: BRANCH  12  13
DOCKED: ATOM     13  C   UNL     1      25.798 -15.162  -3.486 -0.56 -0.00    +0.000 C 
DOCKED: ATOM     14  N   UNL     1      26.907 -15.611  -4.271 -0.45 -0.00    +0.000 N 
DOCKED: ATOM     15  O   UNL     1      24.866 -14.513  -4.033 -1.02 -0.00    +0.000 OA
DOCKED: ATOM     16  H   UNL     1      27.646 -16.097  -3.838 -0.02 -0.00    +0.000 HD
DOCKED: BRANCH  14  17
DOCKED: ATOM     17  O   UNL     1      26.949 -15.373  -5.604 -1.15 +0.00    +0.000 OA
DOCKED: ATOM     18  H   UNL     1      26.146 -14.898  -5.872 -0.02 +0.00    +0.000 HD
DOCKED: ENDBRANCH  14  17
DOCKED: ENDBRANCH  12  13
DOCKED: ENDBRANCH  11  12
DOCKED: ENDBRANCH  10  11
DOCKED: ENDBRANCH   1  10
DOCKED: TORSDOF 9
DOCKED: TER
DOCKED: ENDMDL
________________________________________________________________________________


	BEGINNING GENETIC ALGORITHM DOCKING 9 of 100
Run: 9 Seed: 1271454333 953067933 [ Run 9 of 100 GA/GALS ]
Beginning LAMARCKIAN GENETIC ALGORITHM (LGA), with a maximum of 2500000 energy evaluations.

Final-Value: -12.982


	FINAL GENETIC ALGORITHM DOCKED STATE
	_______________________________________________


Detailed state:  trans 26.368 -16.585 -2.445 quatxyzw 0.529567 0.643873 0.372686 -0.407544 center 0.359 0.163 0.443 ntor 9 179.7629 -10.0299 165.2133 168.7558 -170.2734 -19.5136 -39.8589 -159.6621 23.1492
State:	 26.368 -16.585  -2.445   0.580  0.705  0.408 -131.899    179.76  -10.03  165.21  168.76 -170.27  -19.51  -39.86 -159.66   23.15

DOCKED: MODEL        9
DOCKED: USER    Run = 9
DOCKED: USER    DPF = ligand_dock.biased.dpf
DOCKED: USER  
DOCKED: USER    Estimated Free Energy of Binding    =   -8.64 kcal/mol  [=(1)+(2)+(3)-(4)]
DOCKED: USER    Estimated Inhibition Constant, Ki   =  466.45 nM (nanomolar)  [Temperature = 298.15 K]
DOCKED: USER    
DOCKED: USER    (1) Final Intermolecular Energy     =  -11.32 kcal/mol
DOCKED: USER        vdW + Hbond + desolv Energy     =  -11.32 kcal/mol
DOCKED: USER        Electrostatic Energy            =   +0.00 kcal/mol
DOCKED: USER    (2) Final Total Internal Energy     =   -1.66 kcal/mol
DOCKED: USER    (3) Torsional Free Energy           =   +2.68 kcal/mol
DOCKED: USER    (4) Unbound System's Energy  [=(2)] =   -1.66 kcal/mol
DOCKED: USER    
DOCKED: USER    
DOCKED: USER    NEWDPF move ligand.pdbqt
DOCKED: USER    NEWDPF about 0.359000 0.163000 0.443000
DOCKED: USER    NEWDPF tran0 26.367779 -16.584502 -2.444577
DOCKED: USER    NEWDPF quaternion0 0.529567 0.643873 0.372686 -0.407544
DOCKED: USER    NEWDPF axisangle0 0.579912 0.705084 0.408116 -131.898649
DOCKED: USER    NEWDPF quat0 0.579912 0.705084 0.408116 -131.898649
DOCKED: USER    NEWDPF dihe0 179.76 -10.03 165.21 168.76 -170.27 -19.51 -39.86 -159.66 23.15 
DOCKED: USER  keepresnum = 1 
DOCKED: USER  
DOCKED: REMARK  Name = 
DOCKED: REMARK  9 active torsions:
DOCKED: REMARK  status: ('A' for Active; 'I' for Inactive)
DOCKED: REMARK    1  A    between atoms: O_1  and  N_2
DOCKED: REMARK    2  A    between atoms: C_3  and  C_4
DOCKED: REMARK    3  A    between atoms: C_4  and  C_5
DOCKED: REMARK    4  A    between atoms: C_5  and  C_6
DOCKED: REMARK    5  A    between atoms: C_6  and  C_7
DOCKED: REMARK    6  A    between atoms: C_7  and  C_8
DOCKED: REMARK    7  A    between atoms: C_8  and  C_9
DOCKED: REMARK    8  A    between atoms: C_9  and  C_10
DOCKED: REMARK    9  A    between atoms: N_11  and  O_12
DOCKED: REMARK                            x       y       z     vdW  Elec       q    Type
DOCKED: REMARK                         _______ _______ _______ _____ _____    ______ ____
DOCKED: USER                              x       y       z     vdW  Elec       q    Type
DOCKED: USER                           _______ _______ _______ _____ _____    ______ ____
DOCKED: ROOT
DOCKED: ATOM      1  C   UNL     1      25.599 -16.959  -2.027 -0.56 -0.00    +0.000 C 
DOCKED: ENDROOT
DOCKED: BRANCH   1   2
DOCKED: ATOM      2  C   UNL     1      25.488 -15.617  -2.762 -0.55 -0.00    +0.000 C 
DOCKED: BRANCH   2   3
DOCKED: ATOM      3  C   UNL     1      26.332 -14.541  -2.071 -0.35 -0.00    +0.000 C 
DOCKED: BRANCH   3   5
DOCKED: ATOM      4  N   UNL     1      26.966 -14.899   0.362 -0.30 -0.00    +0.000 N 
DOCKED: ATOM      5  C   UNL     1      27.210 -15.156  -1.023 -0.31 -0.00    +0.000 C 
DOCKED: ATOM      6  O   UNL     1      28.190 -15.870  -1.368 -0.26 -0.00    +0.000 OA
DOCKED: ATOM      7  H   UNL     1      26.221 -14.312   0.626 -0.02 -0.00    +0.000 HD
DOCKED: BRANCH   4   8
DOCKED: ATOM      8  O   UNL     1      27.752 -15.455   1.315 -0.23 -0.00    +0.000 OA
DOCKED: ATOM      9  H   UNL     1      28.432 -16.003   0.892 -0.63 -0.00    +0.000 HD
DOCKED: ENDBRANCH   4   8
DOCKED: ENDBRANCH   3   5
DOCKED: ENDBRANCH   2   3
DOCKED: ENDBRANCH   1   2
DOCKED: BRANCH   1  10
DOCKED: ATOM     10  C   UNL     1      24.246 -17.684  -1.997 -0.50 -0.00    +0.000 C 
DOCKED: BRANCH  10  11
DOCKED: ATOM     11  C   UNL     1      24.046 -18.537  -0.731 -0.80 -0.00    +0.000 C 
DOCKED: BRANCH  11  12
DOCKED: ATOM     12  C   UNL     1      22.771 -18.194   0.060 -0.76 -0.00    +0.000 C 
DOCKED: BRANCH  12  13
DOCKED: ATOM     13  C   UNL     1      21.517 -18.428  -0.734 -0.85 -0.00    +0.000 C 
DOCKED: ATOM     14  N   UNL     1      21.334 -19.648  -1.459 -0.65 -0.00    +0.000 N 
DOCKED: ATOM     15  O   UNL     1      20.631 -17.532  -0.782 -2.12 +0.00    +0.000 OA
DOCKED: ATOM     16  H   UNL     1      22.037 -20.337  -1.441 -0.30 -0.00    +0.000 HD
DOCKED: BRANCH  14  17
DOCKED: ATOM     17  O   UNL     1      20.202 -19.862  -2.172 -1.86 -0.00    +0.000 OA
DOCKED: ATOM     18  H   UNL     1      19.554 -19.171  -1.962 -0.29 -0.00    +0.000 HD
DOCKED: ENDBRANCH  14  17
DOCKED: ENDBRANCH  12  13
DOCKED: ENDBRANCH  11  12
DOCKED: ENDBRANCH  10  11
DOCKED: ENDBRANCH   1  10
DOCKED: TORSDOF 9
DOCKED: TER
DOCKED: ENDMDL
________________________________________________________________________________


	BEGINNING GENETIC ALGORITHM DOCKING 10 of 100
Run: 10 Seed: 1079091038 585767809 [ Run 10 of 100 GA/GALS ]
Beginning LAMARCKIAN GENETIC ALGORITHM (LGA), with a maximum of 2500000 energy evaluations.

Final-Value: -13.086


	FINAL GENETIC ALGORITHM DOCKED STATE
	_______________________________________________


Detailed state:  trans 24.372 -18.843 -1.477 quatxyzw 0.309997 -0.699980 0.639181 -0.073322 center 0.359 0.163 0.443 ntor 9 -176.1251 -166.1966 178.3823 43.6934 53.6038 -25.1811 -44.3052 156.7738 -73.4489
State:	 24.372 -18.843  -1.477   0.311 -0.702  0.641 -171.590   -176.13 -166.20  178.38   43.69   53.60  -25.18  -44.31  156.77  -73.45

DOCKED: MODEL       10
DOCKED: USER    Run = 10
DOCKED: USER    DPF = ligand_dock.biased.dpf
DOCKED: USER  
DOCKED: USER    Estimated Free Energy of Binding    =   -9.32 kcal/mol  [=(1)+(2)+(3)-(4)]
DOCKED: USER    Estimated Inhibition Constant, Ki   =  147.30 nM (nanomolar)  [Temperature = 298.15 K]
DOCKED: USER    
DOCKED: USER    (1) Final Intermolecular Energy     =  -12.00 kcal/mol
DOCKED: USER        vdW + Hbond + desolv Energy     =  -12.00 kcal/mol
DOCKED: USER        Electrostatic Energy            =   +0.00 kcal/mol
DOCKED: USER    (2) Final Total Internal Energy     =   -1.08 kcal/mol
DOCKED: USER    (3) Torsional Free Energy           =   +2.68 kcal/mol
DOCKED: USER    (4) Unbound System's Energy  [=(2)] =   -1.08 kcal/mol
DOCKED: USER    
DOCKED: USER    
DOCKED: USER    NEWDPF move ligand.pdbqt
DOCKED: USER    NEWDPF about 0.359000 0.163000 0.443000
DOCKED: USER    NEWDPF tran0 24.372192 -18.842787 -1.477451
DOCKED: USER    NEWDPF quaternion0 0.309997 -0.699980 0.639181 -0.073322
DOCKED: USER    NEWDPF axisangle0 0.310834 -0.701870 0.640907 -171.590385
DOCKED: USER    NEWDPF quat0 0.310834 -0.701870 0.640907 -171.590385
DOCKED: USER    NEWDPF dihe0 -176.13 -166.20 178.38 43.69 53.60 -25.18 -44.31 156.77 -73.45 
DOCKED: USER  keepresnum = 1 
DOCKED: USER  
DOCKED: REMARK  Name = 
DOCKED: REMARK  9 active torsions:
DOCKED: REMARK  status: ('A' for Active; 'I' for Inactive)
DOCKED: REMARK    1  A    between atoms: O_1  and  N_2
DOCKED: REMARK    2  A    between atoms: C_3  and  C_4
DOCKED: REMARK    3  A    between atoms: C_4  and  C_5
DOCKED: REMARK    4  A    between atoms: C_5  and  C_6
DOCKED: REMARK    5  A    between atoms: C_6  and  C_7
DOCKED: REMARK    6  A    between atoms: C_7  and  C_8
DOCKED: REMARK    7  A    between atoms: C_8  and  C_9
DOCKED: REMARK    8  A    between atoms: C_9  and  C_10
DOCKED: REMARK    9  A    between atoms: N_11  and  O_12
DOCKED: REMARK                            x       y       z     vdW  Elec       q    Type
DOCKED: REMARK                         _______ _______ _______ _____ _____    ______ ____
DOCKED: USER                              x       y       z     vdW  Elec       q    Type
DOCKED: USER                           _______ _______ _______ _____ _____    ______ ____
DOCKED: ROOT
DOCKED: ATOM      1  C   UNL     1      24.368 -17.892  -1.519 -0.72 -0.00    +0.000 C 
DOCKED: ENDROOT
DOCKED: BRANCH   1   2
DOCKED: ATOM      2  C   UNL     1      23.563 -18.609  -0.428 -0.80 -0.00    +0.000 C 
DOCKED: BRANCH   2   3
DOCKED: ATOM      3  C   UNL     1      22.367 -19.355  -1.029 -0.73 -0.00    +0.000 C 
DOCKED: BRANCH   3   5
DOCKED: ATOM      4  N   UNL     1      20.548 -19.757   0.697 -0.67 -0.00    +0.000 N 
DOCKED: ATOM      5  C   UNL     1      21.097 -18.946  -0.345 -0.84 -0.00    +0.000 C 
DOCKED: ATOM      6  O   UNL     1      20.492 -17.906  -0.719 -2.28 -0.00    +0.000 OA
DOCKED: ATOM      7  H   UNL     1      21.004 -20.587   0.962 -0.58 -0.00    +0.000 HD
DOCKED: BRANCH   4   8
DOCKED: ATOM      8  O   UNL     1      19.403 -19.391   1.322 -0.71 -0.00    +0.000 OA
DOCKED: ATOM      9  H   UNL     1      19.049 -18.589   0.905 -0.36 -0.00    +0.000 HD
DOCKED: ENDBRANCH   4   8
DOCKED: ENDBRANCH   3   5
DOCKED: ENDBRANCH   2   3
DOCKED: ENDBRANCH   1   2
DOCKED: BRANCH   1  10
DOCKED: ATOM     10  C   UNL     1      24.764 -16.477  -1.073 -0.58 -0.00    +0.000 C 
DOCKED: BRANCH  10  11
DOCKED: ATOM     11  C   UNL     1      26.285 -16.293  -0.929 -0.49 -0.00    +0.000 C 
DOCKED: BRANCH  11  12
DOCKED: ATOM     12  C   UNL     1      27.013 -16.032  -2.260 -0.38 -0.00    +0.000 C 
DOCKED: BRANCH  12  13
DOCKED: ATOM     13  C   UNL     1      26.465 -14.842  -2.996 -0.42 -0.00    +0.000 C 
DOCKED: ATOM     14  N   UNL     1      25.242 -14.944  -3.731 -0.53 -0.00    +0.000 N 
DOCKED: ATOM     15  O   UNL     1      27.102 -13.755  -2.988 -0.24 -0.00    +0.000 OA
DOCKED: ATOM     16  H   UNL     1      24.758 -15.801  -3.756 -0.04 -0.00    +0.000 HD
DOCKED: BRANCH  14  17
DOCKED: ATOM     17  O   UNL     1      24.744 -13.872  -4.391 -1.05 -0.00    +0.000 OA
DOCKED: ATOM     18  H   UNL     1      23.824 -14.047  -4.645 -0.59 -0.00    +0.000 HD
DOCKED: ENDBRANCH  14  17
DOCKED: ENDBRANCH  12  13
DOCKED: ENDBRANCH  11  12
DOCKED: ENDBRANCH  10  11
DOCKED: ENDBRANCH   1  10
DOCKED: TORSDOF 9
DOCKED: TER
DOCKED: ENDMDL
________________________________________________________________________________


	BEGINNING GENETIC ALGORITHM DOCKING 11 of 100
Run: 11 Seed: 631224941 702367063 [ Run 11 of 100 GA/GALS ]
Beginning LAMARCKIAN GENETIC ALGORITHM (LGA), with a maximum of 2500000 energy evaluations.

Final-Value: -12.733


	FINAL GENETIC ALGORITHM DOCKED STATE
	_______________________________________________


Detailed state:  trans 25.633 -16.456 -1.689 quatxyzw 0.896595 0.161376 0.124568 0.393138 center 0.359 0.163 0.443 ntor 9 180.0000 -9.9092 157.5278 93.5537 -169.5629 -178.1455 13.9249 -6.3437 10.6641
State:	 25.633 -16.456  -1.689   0.975  0.176  0.135 133.700    180.00   -9.91  157.53   93.55 -169.56 -178.15   13.92   -6.34   10.66

DOCKED: MODEL       11
DOCKED: USER    Run = 11
DOCKED: USER    DPF = ligand_dock.biased.dpf
DOCKED: USER  
DOCKED: USER    Estimated Free Energy of Binding    =   -8.51 kcal/mol  [=(1)+(2)+(3)-(4)]
DOCKED: USER    Estimated Inhibition Constant, Ki   =  577.19 nM (nanomolar)  [Temperature = 298.15 K]
DOCKED: USER    
DOCKED: USER    (1) Final Intermolecular Energy     =  -11.20 kcal/mol
DOCKED: USER        vdW + Hbond + desolv Energy     =  -11.20 kcal/mol
DOCKED: USER        Electrostatic Energy            =   +0.00 kcal/mol
DOCKED: USER    (2) Final Total Internal Energy     =   -1.54 kcal/mol
DOCKED: USER    (3) Torsional Free Energy           =   +2.68 kcal/mol
DOCKED: USER    (4) Unbound System's Energy  [=(2)] =   -1.54 kcal/mol
DOCKED: USER    
DOCKED: USER    
DOCKED: USER    NEWDPF move ligand.pdbqt
DOCKED: USER    NEWDPF about 0.359000 0.163000 0.443000
DOCKED: USER    NEWDPF tran0 25.632802 -16.455972 -1.688725
DOCKED: USER    NEWDPF quaternion0 0.896595 0.161376 0.124568 0.393138
DOCKED: USER    NEWDPF axisangle0 0.975112 0.175508 0.135477 133.700223
DOCKED: USER    NEWDPF quat0 0.975112 0.175508 0.135477 133.700223
DOCKED: USER    NEWDPF dihe0 180.00 -9.91 157.53 93.55 -169.56 -178.15 13.92 -6.34 10.66 
DOCKED: USER  keepresnum = 1 
DOCKED: USER  
DOCKED: REMARK  Name = 
DOCKED: REMARK  9 active torsions:
DOCKED: REMARK  status: ('A' for Active; 'I' for Inactive)
DOCKED: REMARK    1  A    between atoms: O_1  and  N_2
DOCKED: REMARK    2  A    between atoms: C_3  and  C_4
DOCKED: REMARK    3  A    between atoms: C_4  and  C_5
DOCKED: REMARK    4  A    between atoms: C_5  and  C_6
DOCKED: REMARK    5  A    between atoms: C_6  and  C_7
DOCKED: REMARK    6  A    between atoms: C_7  and  C_8
DOCKED: REMARK    7  A    between atoms: C_8  and  C_9
DOCKED: REMARK    8  A    between atoms: C_9  and  C_10
DOCKED: REMARK    9  A    between atoms: N_11  and  O_12
DOCKED: REMARK                            x       y       z     vdW  Elec       q    Type
DOCKED: REMARK                         _______ _______ _______ _____ _____    ______ ____
DOCKED: USER                              x       y       z     vdW  Elec       q    Type
DOCKED: USER                           _______ _______ _______ _____ _____    ______ ____
DOCKED: ROOT
DOCKED: ATOM      1  C   UNL     1      25.246 -17.201  -1.241 -0.65 -0.00    +0.000 C 
DOCKED: ENDROOT
DOCKED: BRANCH   1   2
DOCKED: ATOM      2  C   UNL     1      26.389 -16.425  -0.577 -0.48 -0.00    +0.000 C 
DOCKED: BRANCH   2   3
DOCKED: ATOM      3  C   UNL     1      27.040 -15.452  -1.564 -0.34 -0.00    +0.000 C 
DOCKED: BRANCH   3   5
DOCKED: ATOM      4  N   UNL     1      26.775 -15.720  -4.076 -0.40 -0.00    +0.000 N 
DOCKED: ATOM      5  C   UNL     1      26.218 -15.345  -2.814 -0.47 -0.00    +0.000 C 
DOCKED: ATOM      6  O   UNL     1      25.046 -14.884  -2.754 -0.54 -0.00    +0.000 OA
DOCKED: ATOM      7  H   UNL     1      27.702 -16.046  -4.123 -0.02 -0.00    +0.000 HD
DOCKED: BRANCH   4   8
DOCKED: ATOM      8  O   UNL     1      26.036 -15.630  -5.208 -1.15 +0.00    +0.000 OA
DOCKED: ATOM      9  H   UNL     1      25.152 -15.294  -4.991 -0.09 -0.00    +0.000 HD
DOCKED: ENDBRANCH   4   8
DOCKED: ENDBRANCH   3   5
DOCKED: ENDBRANCH   2   3
DOCKED: ENDBRANCH   1   2
DOCKED: BRANCH   1  10
DOCKED: ATOM     10  C   UNL     1      24.362 -17.889  -0.191 -0.69 -0.00    +0.000 C 
DOCKED: BRANCH  10  11
DOCKED: ATOM     11  C   UNL     1      23.516 -19.038  -0.772 -0.77 -0.00    +0.000 C 
DOCKED: BRANCH  11  12
DOCKED: ATOM     12  C   UNL     1      22.219 -18.575  -1.457 -0.57 -0.00    +0.000 C 
DOCKED: BRANCH  12  13
DOCKED: ATOM     13  C   UNL     1      21.023 -18.664  -0.552 -0.81 -0.00    +0.000 C 
DOCKED: ATOM     14  N   UNL     1      20.981 -19.630   0.503 -0.59 -0.00    +0.000 N 
DOCKED: ATOM     15  O   UNL     1      20.038 -17.900  -0.740 -2.00 -0.00    +0.000 OA
DOCKED: ATOM     16  H   UNL     1      21.741 -20.243   0.634 -0.53 -0.00    +0.000 HD
DOCKED: BRANCH  14  17
DOCKED: ATOM     17  O   UNL     1      19.906 -19.710   1.322 -0.76 -0.00    +0.000 OA
DOCKED: ATOM     18  H   UNL     1      19.324 -18.949   1.165 -0.33 -0.00    +0.000 HD
DOCKED: ENDBRANCH  14  17
DOCKED: ENDBRANCH  12  13
DOCKED: ENDBRANCH  11  12
DOCKED: ENDBRANCH  10  11
DOCKED: ENDBRANCH   1  10
DOCKED: TORSDOF 9
DOCKED: TER
DOCKED: ENDMDL
________________________________________________________________________________


	BEGINNING GENETIC ALGORITHM DOCKING 12 of 100
Run: 12 Seed: 372302440 243407938 [ Run 12 of 100 GA/GALS ]
Beginning LAMARCKIAN GENETIC ALGORITHM (LGA), with a maximum of 2500000 energy evaluations.

Final-Value: -13.045


	FINAL GENETIC ALGORITHM DOCKED STATE
	_______________________________________________


Detailed state:  trans 24.008 -17.007 0.147 quatxyzw -0.003598 -0.237824 -0.938994 -0.248429 center 0.359 0.163 0.443 ntor 9 -178.7833 -1.3402 125.0347 -73.3544 0.4774 14.7184 -87.6024 -168.0259 -80.8743
State:	 24.008 -17.007   0.147  -0.004 -0.246 -0.969 -151.231   -178.78   -1.34  125.03  -73.35    0.48   14.72  -87.60 -168.03  -80.87

DOCKED: MODEL       12
DOCKED: USER    Run = 12
DOCKED: USER    DPF = ligand_dock.biased.dpf
DOCKED: USER  
DOCKED: USER    Estimated Free Energy of Binding    =   -8.93 kcal/mol  [=(1)+(2)+(3)-(4)]
DOCKED: USER    Estimated Inhibition Constant, Ki   =  284.53 nM (nanomolar)  [Temperature = 298.15 K]
DOCKED: USER    
DOCKED: USER    (1) Final Intermolecular Energy     =  -11.61 kcal/mol
DOCKED: USER        vdW + Hbond + desolv Energy     =  -11.61 kcal/mol
DOCKED: USER        Electrostatic Energy            =   +0.00 kcal/mol
DOCKED: USER    (2) Final Total Internal Energy     =   -1.43 kcal/mol
DOCKED: USER    (3) Torsional Free Energy           =   +2.68 kcal/mol
DOCKED: USER    (4) Unbound System's Energy  [=(2)] =   -1.43 kcal/mol
DOCKED: USER    
DOCKED: USER    
DOCKED: USER    NEWDPF move ligand.pdbqt
DOCKED: USER    NEWDPF about 0.359000 0.163000 0.443000
DOCKED: USER    NEWDPF tran0 24.008388 -17.006884 0.146546
DOCKED: USER    NEWDPF quaternion0 -0.003598 -0.237824 -0.938994 -0.248429
DOCKED: USER    NEWDPF axisangle0 -0.003714 -0.245521 -0.969384 -151.230898
DOCKED: USER    NEWDPF quat0 -0.003714 -0.245521 -0.969384 -151.230898
DOCKED: USER    NEWDPF dihe0 -178.78 -1.34 125.03 -73.35 0.48 14.72 -87.60 -168.03 -80.87 
DOCKED: USER  keepresnum = 1 
DOCKED: USER  
DOCKED: REMARK  Name = 
DOCKED: REMARK  9 active torsions:
DOCKED: REMARK  status: ('A' for Active; 'I' for Inactive)
DOCKED: REMARK    1  A    between atoms: O_1  and  N_2
DOCKED: REMARK    2  A    between atoms: C_3  and  C_4
DOCKED: REMARK    3  A    between atoms: C_4  and  C_5
DOCKED: REMARK    4  A    between atoms: C_5  and  C_6
DOCKED: REMARK    5  A    between atoms: C_6  and  C_7
DOCKED: REMARK    6  A    between atoms: C_7  and  C_8
DOCKED: REMARK    7  A    between atoms: C_8  and  C_9
DOCKED: REMARK    8  A    between atoms: C_9  and  C_10
DOCKED: REMARK    9  A    between atoms: N_11  and  O_12
DOCKED: REMARK                            x       y       z     vdW  Elec       q    Type
DOCKED: REMARK                         _______ _______ _______ _____ _____    ______ ____
DOCKED: USER                              x       y       z     vdW  Elec       q    Type
DOCKED: USER                           _______ _______ _______ _____ _____    ______ ____
DOCKED: ROOT
DOCKED: ATOM      1  C   UNL     1      24.420 -17.269  -0.671 -0.68 -0.00    +0.000 C 
DOCKED: ENDROOT
DOCKED: BRANCH   1   2
DOCKED: ATOM      2  C   UNL     1      22.907 -17.443  -0.491 -0.75 -0.00    +0.000 C 
DOCKED: BRANCH   2   3
DOCKED: ATOM      3  C   UNL     1      22.527 -18.927  -0.443 -0.81 -0.00    +0.000 C 
DOCKED: BRANCH   3   5
DOCKED: ATOM      4  N   UNL     1      20.509 -20.235   0.374 -0.67 -0.00    +0.000 N 
DOCKED: ATOM      5  C   UNL     1      21.045 -19.084  -0.283 -0.85 -0.00    +0.000 C 
DOCKED: ATOM      6  O   UNL     1      20.268 -18.216  -0.766 -2.16 -0.00    +0.000 OA
DOCKED: ATOM      7  H   UNL     1      21.117 -20.928   0.718 -0.58 -0.00    +0.000 HD
DOCKED: BRANCH   4   8
DOCKED: ATOM      8  O   UNL     1      19.171 -20.381   0.526 -0.79 -0.00    +0.000 OA
DOCKED: ATOM      9  H   UNL     1      18.716 -19.628   0.117 -0.05 -0.00    +0.000 HD
DOCKED: ENDBRANCH   4   8
DOCKED: ENDBRANCH   3   5
DOCKED: ENDBRANCH   2   3
DOCKED: ENDBRANCH   1   2
DOCKED: BRANCH   1  10
DOCKED: ATOM     10  C   UNL     1      24.785 -17.122  -2.155 -0.59 -0.00    +0.000 C 
DOCKED: BRANCH  10  11
DOCKED: ATOM     11  C   UNL     1      25.207 -15.691  -2.534 -0.52 -0.00    +0.000 C 
DOCKED: BRANCH  11  12
DOCKED: ATOM     12  C   UNL     1      26.667 -15.573  -3.005 -0.44 -0.00    +0.000 C 
DOCKED: BRANCH  12  13
DOCKED: ATOM     13  C   UNL     1      26.798 -15.608  -4.502 -0.44 -0.00    +0.000 C 
DOCKED: ATOM     14  N   UNL     1      28.015 -15.199  -5.133 -0.39 -0.00    +0.000 N 
DOCKED: ATOM     15  O   UNL     1      25.819 -15.975  -5.206 -1.11 +0.00    +0.000 OA
DOCKED: ATOM     16  H   UNL     1      28.770 -14.889  -4.583 -0.00 -0.00    +0.000 HD
DOCKED: BRANCH  14  17
DOCKED: ATOM     17  O   UNL     1      28.136 -15.234  -6.482 -0.75 +0.00    +0.000 OA
DOCKED: ATOM     18  H   UNL     1      27.317 -15.580  -6.870 -0.04 +0.00    +0.000 HD
DOCKED: ENDBRANCH  14  17
DOCKED: ENDBRANCH  12  13
DOCKED: ENDBRANCH  11  12
DOCKED: ENDBRANCH  10  11
DOCKED: ENDBRANCH   1  10
DOCKED: TORSDOF 9
DOCKED: TER
DOCKED: ENDMDL
________________________________________________________________________________


	BEGINNING GENETIC ALGORITHM DOCKING 13 of 100
Run: 13 Seed: 777395020 279449819 [ Run 13 of 100 GA/GALS ]
Beginning LAMARCKIAN GENETIC ALGORITHM (LGA), with a maximum of 2500000 energy evaluations.

Final-Value: -14.203


	FINAL GENETIC ALGORITHM DOCKED STATE
	_______________________________________________


Detailed state:  trans 24.427 -18.728 -1.941 quatxyzw 0.287900 -0.821412 0.489694 -0.050942 center 0.359 0.163 0.443 ntor 9 174.4578 -1.8998 -50.0671 4.5672 -73.7336 -122.0615 -121.6129 170.2140 -57.2674
State:	 24.427 -18.728  -1.941   0.288 -0.822  0.490 -174.160    174.46   -1.90  -50.07    4.57  -73.73 -122.06 -121.61  170.21  -57.27

DOCKED: MODEL       13
DOCKED: USER    Run = 13
DOCKED: USER    DPF = ligand_dock.biased.dpf
DOCKED: USER  
DOCKED: USER    Estimated Free Energy of Binding    =   -9.96 kcal/mol  [=(1)+(2)+(3)-(4)]
DOCKED: USER    Estimated Inhibition Constant, Ki   =   50.17 nM (nanomolar)  [Temperature = 298.15 K]
DOCKED: USER    
DOCKED: USER    (1) Final Intermolecular Energy     =  -12.64 kcal/mol
DOCKED: USER        vdW + Hbond + desolv Energy     =  -12.64 kcal/mol
DOCKED: USER        Electrostatic Energy            =   +0.00 kcal/mol
DOCKED: USER    (2) Final Total Internal Energy     =   -1.56 kcal/mol
DOCKED: USER    (3) Torsional Free Energy           =   +2.68 kcal/mol
DOCKED: USER    (4) Unbound System's Energy  [=(2)] =   -1.56 kcal/mol
DOCKED: USER    
DOCKED: USER    
DOCKED: USER    NEWDPF move ligand.pdbqt
DOCKED: USER    NEWDPF about 0.359000 0.163000 0.443000
DOCKED: USER    NEWDPF tran0 24.427399 -18.727883 -1.941170
DOCKED: USER    NEWDPF quaternion0 0.287900 -0.821412 0.489694 -0.050942
DOCKED: USER    NEWDPF axisangle0 0.288275 -0.822480 0.490331 -174.159965
DOCKED: USER    NEWDPF quat0 0.288275 -0.822480 0.490331 -174.159965
DOCKED: USER    NEWDPF dihe0 174.46 -1.90 -50.07 4.57 -73.73 -122.06 -121.61 170.21 -57.27 
DOCKED: USER  keepresnum = 1 
DOCKED: USER  
DOCKED: REMARK  Name = 
DOCKED: REMARK  9 active torsions:
DOCKED: REMARK  status: ('A' for Active; 'I' for Inactive)
DOCKED: REMARK    1  A    between atoms: O_1  and  N_2
DOCKED: REMARK    2  A    between atoms: C_3  and  C_4
DOCKED: REMARK    3  A    between atoms: C_4  and  C_5
DOCKED: REMARK    4  A    between atoms: C_5  and  C_6
DOCKED: REMARK    5  A    between atoms: C_6  and  C_7
DOCKED: REMARK    6  A    between atoms: C_7  and  C_8
DOCKED: REMARK    7  A    between atoms: C_8  and  C_9
DOCKED: REMARK    8  A    between atoms: C_9  and  C_10
DOCKED: REMARK    9  A    between atoms: N_11  and  O_12
DOCKED: REMARK                            x       y       z     vdW  Elec       q    Type
DOCKED: REMARK                         _______ _______ _______ _____ _____    ______ ____
DOCKED: USER                              x       y       z     vdW  Elec       q    Type
DOCKED: USER                           _______ _______ _______ _____ _____    ______ ____
DOCKED: ROOT
DOCKED: ATOM      1  C   UNL     1      24.519 -17.833  -1.631 -0.68 -0.00    +0.000 C 
DOCKED: ENDROOT
DOCKED: BRANCH   1   2
DOCKED: ATOM      2  C   UNL     1      23.642 -18.822  -0.853 -0.80 -0.00    +0.000 C 
DOCKED: BRANCH   2   3
DOCKED: ATOM      3  C   UNL     1      22.446 -18.110  -0.213 -0.81 -0.00    +0.000 C 
DOCKED: BRANCH   3   5
DOCKED: ATOM      4  N   UNL     1      21.011 -19.729  -1.546 -0.73 -0.00    +0.000 N 
DOCKED: ATOM      5  C   UNL     1      21.183 -18.439  -0.952 -0.76 -0.00    +0.000 C 
DOCKED: ATOM      6  O   UNL     1      20.288 -17.562  -1.082 -2.06 -0.00    +0.000 OA
DOCKED: ATOM      7  H   UNL     1      21.728 -20.399  -1.472 -0.30 -0.00    +0.000 HD
DOCKED: BRANCH   4   8
DOCKED: ATOM      8  O   UNL     1      19.871 -20.034  -2.210 -1.80 -0.00    +0.000 OA
DOCKED: ATOM      9  H   UNL     1      19.238 -19.305  -2.117 -0.45 -0.00    +0.000 HD
DOCKED: ENDBRANCH   4   8
DOCKED: ENDBRANCH   3   5
DOCKED: ENDBRANCH   2   3
DOCKED: ENDBRANCH   1   2
DOCKED: BRANCH   1  10
DOCKED: ATOM     10  C   UNL     1      25.053 -16.727  -0.710 -0.57 -0.00    +0.000 C 
DOCKED: BRANCH  10  11
DOCKED: ATOM     11  C   UNL     1      26.567 -16.493  -0.861 -0.49 -0.00    +0.000 C 
DOCKED: BRANCH  11  12
DOCKED: ATOM     12  C   UNL     1      26.932 -15.371  -1.849 -0.35 -0.00    +0.000 C 
DOCKED: BRANCH  12  13
DOCKED: ATOM     13  C   UNL     1      26.072 -15.382  -3.080 -0.51 -0.00    +0.000 C 
DOCKED: ATOM     14  N   UNL     1      26.652 -15.612  -4.368 -0.49 -0.00    +0.000 N 
DOCKED: ATOM     15  O   UNL     1      24.835 -15.160  -2.982 -0.61 -0.00    +0.000 OA
DOCKED: ATOM     16  H   UNL     1      27.622 -15.761  -4.447 -0.02 -0.00    +0.000 HD
DOCKED: BRANCH  14  17
DOCKED: ATOM     17  O   UNL     1      25.878 -15.626  -5.479 -1.10 +0.00    +0.000 OA
DOCKED: ATOM     18  H   UNL     1      24.950 -15.494  -5.228 -0.11 -0.00    +0.000 HD
DOCKED: ENDBRANCH  14  17
DOCKED: ENDBRANCH  12  13
DOCKED: ENDBRANCH  11  12
DOCKED: ENDBRANCH  10  11
DOCKED: ENDBRANCH   1  10
DOCKED: TORSDOF 9
DOCKED: TER
DOCKED: ENDMDL
________________________________________________________________________________


	BEGINNING GENETIC ALGORITHM DOCKING 14 of 100
Run: 14 Seed: 604040769 1667486637 [ Run 14 of 100 GA/GALS ]
Beginning LAMARCKIAN GENETIC ALGORITHM (LGA), with a maximum of 2500000 energy evaluations.

Final-Value: -12.635


	FINAL GENETIC ALGORITHM DOCKED STATE
	_______________________________________________


Detailed state:  trans 26.892 -17.019 -1.790 quatxyzw 0.818991 0.534427 0.031766 0.206476 center 0.359 0.163 0.443 ntor 9 179.8543 28.4622 156.9625 -3.1179 113.5344 118.1923 95.5479 129.6987 -112.0525
State:	 26.892 -17.019  -1.790   0.837  0.546  0.032 156.168    179.85   28.46  156.96   -3.12  113.53  118.19   95.55  129.70 -112.05

DOCKED: MODEL       14
DOCKED: USER    Run = 14
DOCKED: USER    DPF = ligand_dock.biased.dpf
DOCKED: USER  
DOCKED: USER    Estimated Free Energy of Binding    =   -8.14 kcal/mol  [=(1)+(2)+(3)-(4)]
DOCKED: USER    Estimated Inhibition Constant, Ki   =    1.08 uM (micromolar)  [Temperature = 298.15 K]
DOCKED: USER    
DOCKED: USER    (1) Final Intermolecular Energy     =  -10.82 kcal/mol
DOCKED: USER        vdW + Hbond + desolv Energy     =  -10.82 kcal/mol
DOCKED: USER        Electrostatic Energy            =   +0.00 kcal/mol
DOCKED: USER    (2) Final Total Internal Energy     =   -1.81 kcal/mol
DOCKED: USER    (3) Torsional Free Energy           =   +2.68 kcal/mol
DOCKED: USER    (4) Unbound System's Energy  [=(2)] =   -1.81 kcal/mol
DOCKED: USER    
DOCKED: USER    
DOCKED: USER    NEWDPF move ligand.pdbqt
DOCKED: USER    NEWDPF about 0.359000 0.163000 0.443000
DOCKED: USER    NEWDPF tran0 26.892139 -17.019482 -1.789884
DOCKED: USER    NEWDPF quaternion0 0.818991 0.534427 0.031766 0.206476
DOCKED: USER    NEWDPF axisangle0 0.837028 0.546196 0.032465 156.168214
DOCKED: USER    NEWDPF quat0 0.837028 0.546196 0.032465 156.168214
DOCKED: USER    NEWDPF dihe0 179.85 28.46 156.96 -3.12 113.53 118.19 95.55 129.70 -112.05 
DOCKED: USER  keepresnum = 1 
DOCKED: USER  
DOCKED: REMARK  Name = 
DOCKED: REMARK  9 active torsions:
DOCKED: REMARK  status: ('A' for Active; 'I' for Inactive)
DOCKED: REMARK    1  A    between atoms: O_1  and  N_2
DOCKED: REMARK    2  A    between atoms: C_3  and  C_4
DOCKED: REMARK    3  A    between atoms: C_4  and  C_5
DOCKED: REMARK    4  A    between atoms: C_5  and  C_6
DOCKED: REMARK    5  A    between atoms: C_6  and  C_7
DOCKED: REMARK    6  A    between atoms: C_7  and  C_8
DOCKED: REMARK    7  A    between atoms: C_8  and  C_9
DOCKED: REMARK    8  A    between atoms: C_9  and  C_10
DOCKED: REMARK    9  A    between atoms: N_11  and  O_12
DOCKED: REMARK                            x       y       z     vdW  Elec       q    Type
DOCKED: REMARK                         _______ _______ _______ _____ _____    ______ ____
DOCKED: USER                              x       y       z     vdW  Elec       q    Type
DOCKED: USER                           _______ _______ _______ _____ _____    ______ ____
DOCKED: ROOT
DOCKED: ATOM      1  C   UNL     1      26.922 -17.654  -1.081 -0.46 -0.00    +0.000 C 
DOCKED: ENDROOT
DOCKED: BRANCH   1   2
DOCKED: ATOM      2  C   UNL     1      27.050 -16.158  -0.769 -0.42 -0.00    +0.000 C 
DOCKED: BRANCH   2   3
DOCKED: ATOM      3  C   UNL     1      25.717 -15.435  -0.984 -0.42 -0.00    +0.000 C 
DOCKED: BRANCH   3   5
DOCKED: ATOM      4  N   UNL     1      25.178 -14.219  -3.148 -0.41 -0.00    +0.000 N 
DOCKED: ATOM      5  C   UNL     1      25.341 -15.448  -2.435 -0.49 -0.00    +0.000 C 
DOCKED: ATOM      6  O   UNL     1      25.130 -16.546  -3.017 -0.59 -0.00    +0.000 OA
DOCKED: ATOM      7  H   UNL     1      25.309 -13.363  -2.681 +0.02 -0.00    +0.000 HD
DOCKED: BRANCH   4   8
DOCKED: ATOM      8  O   UNL     1      24.843 -14.224  -4.460 -1.04 -0.00    +0.000 OA
DOCKED: ATOM      9  H   UNL     1      24.754 -15.140  -4.767 -0.13 -0.00    +0.000 HD
DOCKED: ENDBRANCH   4   8
DOCKED: ENDBRANCH   3   5
DOCKED: ENDBRANCH   2   3
DOCKED: ENDBRANCH   1   2
DOCKED: BRANCH   1  10
DOCKED: ATOM     10  C   UNL     1      26.361 -18.423   0.123 -0.58 -0.00    +0.000 C 
DOCKED: BRANCH  10  11
DOCKED: ATOM     11  C   UNL     1      24.842 -18.242   0.302 -0.51 -0.00    +0.000 C 
DOCKED: BRANCH  11  12
DOCKED: ATOM     12  C   UNL     1      24.020 -18.576  -0.955 -0.79 -0.00    +0.000 C 
DOCKED: BRANCH  12  13
DOCKED: ATOM     13  C   UNL     1      22.648 -17.965  -0.930 -0.79 -0.00    +0.000 C 
DOCKED: ATOM     14  N   UNL     1      21.486 -18.784  -1.086 -0.78 -0.00    +0.000 N 
DOCKED: ATOM     15  O   UNL     1      22.522 -16.718  -0.797 -0.75 -0.00    +0.000 OA
DOCKED: ATOM     16  H   UNL     1      21.587 -19.755  -1.214 -0.13 -0.00    +0.000 HD
DOCKED: BRANCH  14  17
DOCKED: ATOM     17  O   UNL     1      20.248 -18.235  -1.059 -2.09 -0.00    +0.000 OA
DOCKED: ATOM     18  H   UNL     1      20.295 -17.318  -1.374 -0.48 -0.00    +0.000 HD
DOCKED: ENDBRANCH  14  17
DOCKED: ENDBRANCH  12  13
DOCKED: ENDBRANCH  11  12
DOCKED: ENDBRANCH  10  11
DOCKED: ENDBRANCH   1  10
DOCKED: TORSDOF 9
DOCKED: TER
DOCKED: ENDMDL
________________________________________________________________________________


	BEGINNING GENETIC ALGORITHM DOCKING 15 of 100
Run: 15 Seed: 813857677 1614907405 [ Run 15 of 100 GA/GALS ]
Beginning LAMARCKIAN GENETIC ALGORITHM (LGA), with a maximum of 2500000 energy evaluations.

Final-Value: -14.476


	FINAL GENETIC ALGORITHM DOCKED STATE
	_______________________________________________


Detailed state:  trans 23.082 -17.069 -1.657 quatxyzw -0.615281 0.639912 0.319649 0.331309 center 0.359 0.163 0.443 ntor 9 180.0000 23.0263 14.6758 -170.0558 -106.0872 -137.6531 -58.6871 -168.4581 -164.3544
State:	 23.082 -17.069  -1.657  -0.652  0.678  0.339 141.303    180.00   23.03   14.68 -170.06 -106.09 -137.65  -58.69 -168.46 -164.35

DOCKED: MODEL       15
DOCKED: USER    Run = 15
DOCKED: USER    DPF = ligand_dock.biased.dpf
DOCKED: USER  
DOCKED: USER    Estimated Free Energy of Binding    =  -10.15 kcal/mol  [=(1)+(2)+(3)-(4)]
DOCKED: USER    Estimated Inhibition Constant, Ki   =   36.48 nM (nanomolar)  [Temperature = 298.15 K]
DOCKED: USER    
DOCKED: USER    (1) Final Intermolecular Energy     =  -12.83 kcal/mol
DOCKED: USER        vdW + Hbond + desolv Energy     =  -12.83 kcal/mol
DOCKED: USER        Electrostatic Energy            =   +0.00 kcal/mol
DOCKED: USER    (2) Final Total Internal Energy     =   -1.64 kcal/mol
DOCKED: USER    (3) Torsional Free Energy           =   +2.68 kcal/mol
DOCKED: USER    (4) Unbound System's Energy  [=(2)] =   -1.64 kcal/mol
DOCKED: USER    
DOCKED: USER    
DOCKED: USER    NEWDPF move ligand.pdbqt
DOCKED: USER    NEWDPF about 0.359000 0.163000 0.443000
DOCKED: USER    NEWDPF tran0 23.081819 -17.068687 -1.657011
DOCKED: USER    NEWDPF quaternion0 -0.615281 0.639912 0.319649 0.331309
DOCKED: USER    NEWDPF axisangle0 -0.652111 0.678217 0.338782 141.303461
DOCKED: USER    NEWDPF quat0 -0.652111 0.678217 0.338782 141.303461
DOCKED: USER    NEWDPF dihe0 180.00 23.03 14.68 -170.06 -106.09 -137.65 -58.69 -168.46 -164.35 
DOCKED: USER  keepresnum = 1 
DOCKED: USER  
DOCKED: REMARK  Name = 
DOCKED: REMARK  9 active torsions:
DOCKED: REMARK  status: ('A' for Active; 'I' for Inactive)
DOCKED: REMARK    1  A    between atoms: O_1  and  N_2
DOCKED: REMARK    2  A    between atoms: C_3  and  C_4
DOCKED: REMARK    3  A    between atoms: C_4  and  C_5
DOCKED: REMARK    4  A    between atoms: C_5  and  C_6
DOCKED: REMARK    5  A    between atoms: C_6  and  C_7
DOCKED: REMARK    6  A    between atoms: C_7  and  C_8
DOCKED: REMARK    7  A    between atoms: C_8  and  C_9
DOCKED: REMARK    8  A    between atoms: C_9  and  C_10
DOCKED: REMARK    9  A    between atoms: N_11  and  O_12
DOCKED: REMARK                            x       y       z     vdW  Elec       q    Type
DOCKED: REMARK                         _______ _______ _______ _____ _____    ______ ____
DOCKED: USER                              x       y       z     vdW  Elec       q    Type
DOCKED: USER                           _______ _______ _______ _____ _____    ______ ____
DOCKED: ROOT
DOCKED: ATOM      1  C   UNL     1      23.799 -16.728  -1.132 -0.55 -0.00    +0.000 C 
DOCKED: ENDROOT
DOCKED: BRANCH   1   2
DOCKED: ATOM      2  C   UNL     1      23.846 -18.176  -1.637 -0.70 -0.00    +0.000 C 
DOCKED: BRANCH   2   3
DOCKED: ATOM      3  C   UNL     1      23.063 -19.107  -0.707 -0.79 -0.00    +0.000 C 
DOCKED: BRANCH   3   5
DOCKED: ATOM      4  N   UNL     1      20.840 -19.801  -1.723 -0.67 -0.00    +0.000 N 
DOCKED: ATOM      5  C   UNL     1      21.588 -18.911  -0.889 -0.85 -0.00    +0.000 C 
DOCKED: ATOM      6  O   UNL     1      21.013 -17.935  -0.337 -1.93 -0.00    +0.000 OA
DOCKED: ATOM      7  H   UNL     1      21.299 -20.542  -2.181 -0.40 -0.00    +0.000 HD
DOCKED: BRANCH   4   8
DOCKED: ATOM      8  O   UNL     1      19.507 -19.633  -1.888 -1.46 -0.00    +0.000 OA
DOCKED: ATOM      9  H   UNL     1      19.212 -18.864  -1.374 -0.46 -0.00    +0.000 HD
DOCKED: ENDBRANCH   4   8
DOCKED: ENDBRANCH   3   5
DOCKED: ENDBRANCH   2   3
DOCKED: ENDBRANCH   1   2
DOCKED: BRANCH   1  10
DOCKED: ATOM     10  C   UNL     1      25.213 -16.179  -0.897 -0.50 -0.00    +0.000 C 
DOCKED: BRANCH  10  11
DOCKED: ATOM     11  C   UNL     1      26.287 -16.897  -1.735 -0.50 -0.00    +0.000 C 
DOCKED: BRANCH  11  12
DOCKED: ATOM     12  C   UNL     1      26.982 -15.993  -2.768 -0.38 -0.00    +0.000 C 
DOCKED: BRANCH  12  13
DOCKED: ATOM     13  C   UNL     1      26.012 -15.337  -3.709 -0.57 -0.00    +0.000 C 
DOCKED: ATOM     14  N   UNL     1      25.105 -14.336  -3.236 -0.45 -0.00    +0.000 N 
DOCKED: ATOM     15  O   UNL     1      25.978 -15.689  -4.919 -0.97 -0.00    +0.000 OA
DOCKED: ATOM     16  H   UNL     1      25.116 -14.078  -2.285 -0.02 -0.00    +0.000 HD
DOCKED: BRANCH  14  17
DOCKED: ATOM     17  O   UNL     1      24.233 -13.741  -4.083 -1.13 -0.00    +0.000 OA
DOCKED: ATOM     18  H   UNL     1      24.082 -14.317  -4.849 -0.50 -0.00    +0.000 HD
DOCKED: ENDBRANCH  14  17
DOCKED: ENDBRANCH  12  13
DOCKED: ENDBRANCH  11  12
DOCKED: ENDBRANCH  10  11
DOCKED: ENDBRANCH   1  10
DOCKED: TORSDOF 9
DOCKED: TER
DOCKED: ENDMDL
________________________________________________________________________________


	BEGINNING GENETIC ALGORITHM DOCKING 16 of 100
Run: 16 Seed: 1628875610 689716064 [ Run 16 of 100 GA/GALS ]
Beginning LAMARCKIAN GENETIC ALGORITHM (LGA), with a maximum of 2500000 energy evaluations.

Final-Value: -13.611


	FINAL GENETIC ALGORITHM DOCKED STATE
	_______________________________________________


Detailed state:  trans 26.594 -17.010 -0.633 quatxyzw -0.333332 -0.410290 -0.267294 0.805671 center 0.359 0.163 0.443 ntor 9 176.4856 -0.2346 179.8348 176.5981 42.3792 19.6336 -129.1646 -179.4164 -40.9778
State:	 26.594 -17.010  -0.633  -0.563 -0.693 -0.451 72.650    176.49   -0.23  179.83  176.60   42.38   19.63 -129.16 -179.42  -40.98

DOCKED: MODEL       16
DOCKED: USER    Run = 16
DOCKED: USER    DPF = ligand_dock.biased.dpf
DOCKED: USER  
DOCKED: USER    Estimated Free Energy of Binding    =   -9.38 kcal/mol  [=(1)+(2)+(3)-(4)]
DOCKED: USER    Estimated Inhibition Constant, Ki   =  132.55 nM (nanomolar)  [Temperature = 298.15 K]
DOCKED: USER    
DOCKED: USER    (1) Final Intermolecular Energy     =  -12.07 kcal/mol
DOCKED: USER        vdW + Hbond + desolv Energy     =  -12.07 kcal/mol
DOCKED: USER        Electrostatic Energy            =   +0.00 kcal/mol
DOCKED: USER    (2) Final Total Internal Energy     =   -1.54 kcal/mol
DOCKED: USER    (3) Torsional Free Energy           =   +2.68 kcal/mol
DOCKED: USER    (4) Unbound System's Energy  [=(2)] =   -1.54 kcal/mol
DOCKED: USER    
DOCKED: USER    
DOCKED: USER    NEWDPF move ligand.pdbqt
DOCKED: USER    NEWDPF about 0.359000 0.163000 0.443000
DOCKED: USER    NEWDPF tran0 26.593701 -17.010412 -0.633288
DOCKED: USER    NEWDPF quaternion0 -0.333332 -0.410290 -0.267294 0.805671
DOCKED: USER    NEWDPF axisangle0 -0.562715 -0.692633 -0.451234 72.649786
DOCKED: USER    NEWDPF quat0 -0.562715 -0.692633 -0.451234 72.649786
DOCKED: USER    NEWDPF dihe0 176.49 -0.23 179.83 176.60 42.38 19.63 -129.16 -179.42 -40.98 
DOCKED: USER  keepresnum = 1 
DOCKED: USER  
DOCKED: REMARK  Name = 
DOCKED: REMARK  9 active torsions:
DOCKED: REMARK  status: ('A' for Active; 'I' for Inactive)
DOCKED: REMARK    1  A    between atoms: O_1  and  N_2
DOCKED: REMARK    2  A    between atoms: C_3  and  C_4
DOCKED: REMARK    3  A    between atoms: C_4  and  C_5
DOCKED: REMARK    4  A    between atoms: C_5  and  C_6
DOCKED: REMARK    5  A    between atoms: C_6  and  C_7
DOCKED: REMARK    6  A    between atoms: C_7  and  C_8
DOCKED: REMARK    7  A    between atoms: C_8  and  C_9
DOCKED: REMARK    8  A    between atoms: C_9  and  C_10
DOCKED: REMARK    9  A    between atoms: N_11  and  O_12
DOCKED: REMARK                            x       y       z     vdW  Elec       q    Type
DOCKED: REMARK                         _______ _______ _______ _____ _____    ______ ____
DOCKED: USER                              x       y       z     vdW  Elec       q    Type
DOCKED: USER                           _______ _______ _______ _____ _____    ______ ____
DOCKED: ROOT
DOCKED: ATOM      1  C   UNL     1      25.666 -16.950  -0.838 -0.59 -0.00    +0.000 C 
DOCKED: ENDROOT
DOCKED: BRANCH   1   2
DOCKED: ATOM      2  C   UNL     1      26.698 -16.337  -1.793 -0.45 -0.00    +0.000 C 
DOCKED: BRANCH   2   3
DOCKED: ATOM      3  C   UNL     1      26.085 -15.188  -2.600 -0.46 -0.00    +0.000 C 
DOCKED: BRANCH   3   5
DOCKED: ATOM      4  N   UNL     1      27.625 -14.483  -4.493 -0.30 -0.00    +0.000 N 
DOCKED: ATOM      5  C   UNL     1      26.519 -15.264  -4.033 -0.52 -0.00    +0.000 C 
DOCKED: ATOM      6  O   UNL     1      25.879 -15.989  -4.842 -0.95 -0.00    +0.000 OA
DOCKED: ATOM      7  H   UNL     1      28.099 -13.891  -3.866 +0.00 -0.00    +0.000 HD
DOCKED: BRANCH   4   8
DOCKED: ATOM      8  O   UNL     1      28.024 -14.550  -5.786 -0.49 -0.00    +0.000 OA
DOCKED: ATOM      9  H   UNL     1      27.493 -15.214  -6.254 -0.06 +0.00    +0.000 HD
DOCKED: ENDBRANCH   4   8
DOCKED: ENDBRANCH   3   5
DOCKED: ENDBRANCH   2   3
DOCKED: ENDBRANCH   1   2
DOCKED: BRANCH   1  10
DOCKED: ATOM     10  C   UNL     1      24.379 -17.326  -1.585 -0.68 -0.00    +0.000 C 
DOCKED: BRANCH  10  11
DOCKED: ATOM     11  C   UNL     1      23.675 -18.561  -0.993 -0.81 -0.00    +0.000 C 
DOCKED: BRANCH  11  12
DOCKED: ATOM     12  C   UNL     1      22.418 -18.230  -0.170 -0.82 -0.00    +0.000 C 
DOCKED: BRANCH  12  13
DOCKED: ATOM     13  C   UNL     1      21.146 -18.470  -0.934 -0.77 -0.00    +0.000 C 
DOCKED: ATOM     14  N   UNL     1      20.882 -19.748  -1.520 -0.75 -0.00    +0.000 N 
DOCKED: ATOM     15  O   UNL     1      20.319 -17.530  -1.082 -2.05 -0.00    +0.000 OA
DOCKED: ATOM     16  H   UNL     1      21.540 -20.474  -1.425 -0.27 -0.00    +0.000 HD
DOCKED: BRANCH  14  17
DOCKED: ATOM     17  O   UNL     1      19.734 -19.967  -2.205 -1.67 -0.00    +0.000 OA
DOCKED: ATOM     18  H   UNL     1      19.198 -19.159  -2.203 -0.41 -0.00    +0.000 HD
DOCKED: ENDBRANCH  14  17
DOCKED: ENDBRANCH  12  13
DOCKED: ENDBRANCH  11  12
DOCKED: ENDBRANCH  10  11
DOCKED: ENDBRANCH   1  10
DOCKED: TORSDOF 9
DOCKED: TER
DOCKED: ENDMDL
________________________________________________________________________________


	BEGINNING GENETIC ALGORITHM DOCKING 17 of 100
Run: 17 Seed: 991521136 1835663996 [ Run 17 of 100 GA/GALS ]
Beginning LAMARCKIAN GENETIC ALGORITHM (LGA), with a maximum of 2500000 energy evaluations.

Final-Value: -14.015


	FINAL GENETIC ALGORITHM DOCKED STATE
	_______________________________________________


Detailed state:  trans 23.284 -16.952 -1.514 quatxyzw -0.443206 0.636579 0.365082 0.514831 center 0.359 0.163 0.443 ntor 9 178.3305 15.7994 -2.0695 -3.9110 -86.0431 -163.8428 -32.2906 -135.5470 3.9858
State:	 23.284 -16.952  -1.514  -0.517  0.743  0.426 118.028    178.33   15.80   -2.07   -3.91  -86.04 -163.84  -32.29 -135.55    3.99

DOCKED: MODEL       17
DOCKED: USER    Run = 17
DOCKED: USER    DPF = ligand_dock.biased.dpf
DOCKED: USER  
DOCKED: USER    Estimated Free Energy of Binding    =   -9.83 kcal/mol  [=(1)+(2)+(3)-(4)]
DOCKED: USER    Estimated Inhibition Constant, Ki   =   61.94 nM (nanomolar)  [Temperature = 298.15 K]
DOCKED: USER    
DOCKED: USER    (1) Final Intermolecular Energy     =  -12.52 kcal/mol
DOCKED: USER        vdW + Hbond + desolv Energy     =  -12.52 kcal/mol
DOCKED: USER        Electrostatic Energy            =   +0.00 kcal/mol
DOCKED: USER    (2) Final Total Internal Energy     =   -1.50 kcal/mol
DOCKED: USER    (3) Torsional Free Energy           =   +2.68 kcal/mol
DOCKED: USER    (4) Unbound System's Energy  [=(2)] =   -1.50 kcal/mol
DOCKED: USER    
DOCKED: USER    
DOCKED: USER    NEWDPF move ligand.pdbqt
DOCKED: USER    NEWDPF about 0.359000 0.163000 0.443000
DOCKED: USER    NEWDPF tran0 23.283762 -16.951989 -1.514169
DOCKED: USER    NEWDPF quaternion0 -0.443206 0.636579 0.365082 0.514831
DOCKED: USER    NEWDPF axisangle0 -0.516984 0.742546 0.425855 118.027691
DOCKED: USER    NEWDPF quat0 -0.516984 0.742546 0.425855 118.027691
DOCKED: USER    NEWDPF dihe0 178.33 15.80 -2.07 -3.91 -86.04 -163.84 -32.29 -135.55 3.99 
DOCKED: USER  keepresnum = 1 
DOCKED: USER  
DOCKED: REMARK  Name = 
DOCKED: REMARK  9 active torsions:
DOCKED: REMARK  status: ('A' for Active; 'I' for Inactive)
DOCKED: REMARK    1  A    between atoms: O_1  and  N_2
DOCKED: REMARK    2  A    between atoms: C_3  and  C_4
DOCKED: REMARK    3  A    between atoms: C_4  and  C_5
DOCKED: REMARK    4  A    between atoms: C_5  and  C_6
DOCKED: REMARK    5  A    between atoms: C_6  and  C_7
DOCKED: REMARK    6  A    between atoms: C_7  and  C_8
DOCKED: REMARK    7  A    between atoms: C_8  and  C_9
DOCKED: REMARK    8  A    between atoms: C_9  and  C_10
DOCKED: REMARK    9  A    between atoms: N_11  and  O_12
DOCKED: REMARK                            x       y       z     vdW  Elec       q    Type
DOCKED: REMARK                         _______ _______ _______ _____ _____    ______ ____
DOCKED: USER                              x       y       z     vdW  Elec       q    Type
DOCKED: USER                           _______ _______ _______ _____ _____    ______ ____
DOCKED: ROOT
DOCKED: ATOM      1  C   UNL     1      24.174 -16.629  -1.420 -0.53 -0.00    +0.000 C 
DOCKED: ENDROOT
DOCKED: BRANCH   1   2
DOCKED: ATOM      2  C   UNL     1      23.912 -18.140  -1.452 -0.76 -0.00    +0.000 C 
DOCKED: BRANCH   2   3
DOCKED: ATOM      3  C   UNL     1      22.935 -18.552  -0.348 -0.83 -0.00    +0.000 C 
DOCKED: BRANCH   3   5
DOCKED: ATOM      4  N   UNL     1      21.062 -19.724  -1.602 -0.69 -0.00    +0.000 N 
DOCKED: ATOM      5  C   UNL     1      21.531 -18.585  -0.874 -0.83 -0.00    +0.000 C 
DOCKED: ATOM      6  O   UNL     1      20.777 -17.589  -0.708 -2.14 -0.00    +0.000 OA
DOCKED: ATOM      7  H   UNL     1      21.666 -20.484  -1.760 -0.39 -0.00    +0.000 HD
DOCKED: BRANCH   4   8
DOCKED: ATOM      8  O   UNL     1      19.794 -19.762  -2.077 -1.81 -0.00    +0.000 OA
DOCKED: ATOM      9  H   UNL     1      19.327 -18.953  -1.816 -0.43 -0.00    +0.000 HD
DOCKED: ENDBRANCH   4   8
DOCKED: ENDBRANCH   3   5
DOCKED: ENDBRANCH   2   3
DOCKED: ENDBRANCH   1   2
DOCKED: BRANCH   1  10
DOCKED: ATOM     10  C   UNL     1      25.595 -16.305  -1.902 -0.56 -0.00    +0.000 C 
DOCKED: BRANCH  10  11
DOCKED: ATOM     11  C   UNL     1      26.020 -14.856  -1.599 -0.38 -0.00    +0.000 C 
DOCKED: BRANCH  11  12
DOCKED: ATOM     12  C   UNL     1      27.527 -14.688  -1.338 -0.24 -0.00    +0.000 C 
DOCKED: BRANCH  12  13
DOCKED: ATOM     13  C   UNL     1      27.911 -15.024   0.075 -0.27 -0.00    +0.000 C 
DOCKED: ATOM     14  N   UNL     1      28.626 -14.079   0.877 -0.18 -0.00    +0.000 N 
DOCKED: ATOM     15  O   UNL     1      27.624 -16.156   0.548 -0.35 -0.00    +0.000 OA
DOCKED: ATOM     16  H   UNL     1      28.870 -13.203   0.498 +0.00 -0.00    +0.000 HD
DOCKED: BRANCH  14  17
DOCKED: ATOM     17  O   UNL     1      28.969 -14.378   2.152 -0.26 -0.00    +0.000 OA
DOCKED: ATOM     18  H   UNL     1      28.888 -15.334   2.292 -1.86 -0.00    +0.000 HD
DOCKED: ENDBRANCH  14  17
DOCKED: ENDBRANCH  12  13
DOCKED: ENDBRANCH  11  12
DOCKED: ENDBRANCH  10  11
DOCKED: ENDBRANCH   1  10
DOCKED: TORSDOF 9
DOCKED: TER
DOCKED: ENDMDL
________________________________________________________________________________


	BEGINNING GENETIC ALGORITHM DOCKING 18 of 100
Run: 18 Seed: 759734625 1062646452 [ Run 18 of 100 GA/GALS ]
Beginning LAMARCKIAN GENETIC ALGORITHM (LGA), with a maximum of 2500000 energy evaluations.

Final-Value: -13.126


	FINAL GENETIC ALGORITHM DOCKED STATE
	_______________________________________________


Detailed state:  trans 25.077 -15.547 -1.136 quatxyzw 0.248980 -0.542623 -0.489822 0.635330 center 0.359 0.163 0.443 ntor 9 -164.6932 24.5390 -168.6835 -25.1842 179.8827 145.4646 85.1882 -168.2944 31.2319
State:	 25.077 -15.547  -1.136   0.322 -0.703 -0.634 101.111   -164.69   24.54 -168.68  -25.18  179.88  145.46   85.19 -168.29   31.23

DOCKED: MODEL       18
DOCKED: USER    Run = 18
DOCKED: USER    DPF = ligand_dock.biased.dpf
DOCKED: USER  
DOCKED: USER    Estimated Free Energy of Binding    =   -8.93 kcal/mol  [=(1)+(2)+(3)-(4)]
DOCKED: USER    Estimated Inhibition Constant, Ki   =  285.95 nM (nanomolar)  [Temperature = 298.15 K]
DOCKED: USER    
DOCKED: USER    (1) Final Intermolecular Energy     =  -11.61 kcal/mol
DOCKED: USER        vdW + Hbond + desolv Energy     =  -11.61 kcal/mol
DOCKED: USER        Electrostatic Energy            =   +0.00 kcal/mol
DOCKED: USER    (2) Final Total Internal Energy     =   -1.51 kcal/mol
DOCKED: USER    (3) Torsional Free Energy           =   +2.68 kcal/mol
DOCKED: USER    (4) Unbound System's Energy  [=(2)] =   -1.51 kcal/mol
DOCKED: USER    
DOCKED: USER    
DOCKED: USER    NEWDPF move ligand.pdbqt
DOCKED: USER    NEWDPF about 0.359000 0.163000 0.443000
DOCKED: USER    NEWDPF tran0 25.076661 -15.547113 -1.136330
DOCKED: USER    NEWDPF quaternion0 0.248980 -0.542623 -0.489822 0.635330
DOCKED: USER    NEWDPF axisangle0 0.322412 -0.702660 -0.634286 101.111092
DOCKED: USER    NEWDPF quat0 0.322412 -0.702660 -0.634286 101.111092
DOCKED: USER    NEWDPF dihe0 -164.69 24.54 -168.68 -25.18 179.88 145.46 85.19 -168.29 31.23 
DOCKED: USER  keepresnum = 1 
DOCKED: USER  
DOCKED: REMARK  Name = 
DOCKED: REMARK  9 active torsions:
DOCKED: REMARK  status: ('A' for Active; 'I' for Inactive)
DOCKED: REMARK    1  A    between atoms: O_1  and  N_2
DOCKED: REMARK    2  A    between atoms: C_3  and  C_4
DOCKED: REMARK    3  A    between atoms: C_4  and  C_5
DOCKED: REMARK    4  A    between atoms: C_5  and  C_6
DOCKED: REMARK    5  A    between atoms: C_6  and  C_7
DOCKED: REMARK    6  A    between atoms: C_7  and  C_8
DOCKED: REMARK    7  A    between atoms: C_8  and  C_9
DOCKED: REMARK    8  A    between atoms: C_9  and  C_10
DOCKED: REMARK    9  A    between atoms: N_11  and  O_12
DOCKED: REMARK                            x       y       z     vdW  Elec       q    Type
DOCKED: REMARK                         _______ _______ _______ _____ _____    ______ ____
DOCKED: USER                              x       y       z     vdW  Elec       q    Type
DOCKED: USER                           _______ _______ _______ _____ _____    ______ ____
DOCKED: ROOT
DOCKED: ATOM      1  C   UNL     1      24.679 -16.409  -1.067 -0.55 -0.00    +0.000 C 
DOCKED: ENDROOT
DOCKED: BRANCH   1   2
DOCKED: ATOM      2  C   UNL     1      25.133 -15.889  -2.436 -0.53 -0.00    +0.000 C 
DOCKED: BRANCH   2   3
DOCKED: ATOM      3  C   UNL     1      26.639 -15.605  -2.444 -0.41 -0.00    +0.000 C 
DOCKED: BRANCH   3   5
DOCKED: ATOM      4  N   UNL     1      27.216 -14.944  -0.060 -0.28 -0.00    +0.000 N 
DOCKED: ATOM      5  C   UNL     1      27.238 -15.918  -1.106 -0.37 -0.00    +0.000 C 
DOCKED: ATOM      6  O   UNL     1      27.799 -17.031  -0.918 -0.43 -0.00    +0.000 OA
DOCKED: ATOM      7  H   UNL     1      26.808 -14.063  -0.222 -0.01 -0.00    +0.000 HD
DOCKED: BRANCH   4   8
DOCKED: ATOM      8  O   UNL     1      27.752 -15.222   1.152 -0.35 -0.00    +0.000 OA
DOCKED: ATOM      9  H   UNL     1      28.315 -16.010   1.083 -0.66 -0.00    +0.000 HD
DOCKED: ENDBRANCH   4   8
DOCKED: ENDBRANCH   3   5
DOCKED: ENDBRANCH   2   3
DOCKED: ENDBRANCH   1   2
DOCKED: BRANCH   1  10
DOCKED: ATOM     10  C   UNL     1      24.679 -17.944  -1.031 -0.74 -0.00    +0.000 C 
DOCKED: BRANCH  10  11
DOCKED: ATOM     11  C   UNL     1      23.471 -18.531  -0.278 -0.78 -0.00    +0.000 C 
DOCKED: BRANCH  11  12
DOCKED: ATOM     12  C   UNL     1      22.525 -19.361  -1.164 -0.69 -0.00    +0.000 C 
DOCKED: BRANCH  12  13
DOCKED: ATOM     13  C   UNL     1      21.080 -19.007  -0.958 -0.87 -0.00    +0.000 C 
DOCKED: ATOM     14  N   UNL     1      20.064 -20.009  -1.075 -0.76 -0.00    +0.000 N 
DOCKED: ATOM     15  O   UNL     1      20.757 -17.815  -0.707 -2.26 -0.00    +0.000 OA
DOCKED: ATOM     16  H   UNL     1      20.316 -20.935  -1.295 -0.49 -0.00    +0.000 HD
DOCKED: BRANCH  14  17
DOCKED: ATOM     17  O   UNL     1      18.761 -19.693  -0.885 -0.80 -0.00    +0.000 OA
DOCKED: ATOM     18  H   UNL     1      18.629 -18.749  -1.062 -0.62 -0.00    +0.000 HD
DOCKED: ENDBRANCH  14  17
DOCKED: ENDBRANCH  12  13
DOCKED: ENDBRANCH  11  12
DOCKED: ENDBRANCH  10  11
DOCKED: ENDBRANCH   1  10
DOCKED: TORSDOF 9
DOCKED: TER
DOCKED: ENDMDL
________________________________________________________________________________


	BEGINNING GENETIC ALGORITHM DOCKING 19 of 100
Run: 19 Seed: 110622518 158693923 [ Run 19 of 100 GA/GALS ]
Beginning LAMARCKIAN GENETIC ALGORITHM (LGA), with a maximum of 2500000 energy evaluations.

Final-Value: -13.588


	FINAL GENETIC ALGORITHM DOCKED STATE
	_______________________________________________


Detailed state:  trans 23.498 -16.925 -1.257 quatxyzw 0.416019 -0.709538 -0.428144 -0.374402 center 0.359 0.163 0.443 ntor 9 -180.0000 -7.0575 25.8303 87.1957 -70.3814 -152.0701 -46.5415 -118.9781 -38.1400
State:	 23.498 -16.925  -1.257   0.449 -0.765 -0.462 -136.025   -180.00   -7.06   25.83   87.20  -70.38 -152.07  -46.54 -118.98  -38.14

DOCKED: MODEL       19
DOCKED: USER    Run = 19
DOCKED: USER    DPF = ligand_dock.biased.dpf
DOCKED: USER  
DOCKED: USER    Estimated Free Energy of Binding    =   -9.39 kcal/mol  [=(1)+(2)+(3)-(4)]
DOCKED: USER    Estimated Inhibition Constant, Ki   =  131.24 nM (nanomolar)  [Temperature = 298.15 K]
DOCKED: USER    
DOCKED: USER    (1) Final Intermolecular Energy     =  -12.07 kcal/mol
DOCKED: USER        vdW + Hbond + desolv Energy     =  -12.07 kcal/mol
DOCKED: USER        Electrostatic Energy            =   +0.00 kcal/mol
DOCKED: USER    (2) Final Total Internal Energy     =   -1.51 kcal/mol
DOCKED: USER    (3) Torsional Free Energy           =   +2.68 kcal/mol
DOCKED: USER    (4) Unbound System's Energy  [=(2)] =   -1.51 kcal/mol
DOCKED: USER    
DOCKED: USER    
DOCKED: USER    NEWDPF move ligand.pdbqt
DOCKED: USER    NEWDPF about 0.359000 0.163000 0.443000
DOCKED: USER    NEWDPF tran0 23.497987 -16.925168 -1.256916
DOCKED: USER    NEWDPF quaternion0 0.416019 -0.709538 -0.428144 -0.374402
DOCKED: USER    NEWDPF axisangle0 0.448651 -0.765194 -0.461727 -136.025280
DOCKED: USER    NEWDPF quat0 0.448651 -0.765194 -0.461727 -136.025280
DOCKED: USER    NEWDPF dihe0 -180.00 -7.06 25.83 87.20 -70.38 -152.07 -46.54 -118.98 -38.14 
DOCKED: USER  keepresnum = 1 
DOCKED: USER  
DOCKED: REMARK  Name = 
DOCKED: REMARK  9 active torsions:
DOCKED: REMARK  status: ('A' for Active; 'I' for Inactive)
DOCKED: REMARK    1  A    between atoms: O_1  and  N_2
DOCKED: REMARK    2  A    between atoms: C_3  and  C_4
DOCKED: REMARK    3  A    between atoms: C_4  and  C_5
DOCKED: REMARK    4  A    between atoms: C_5  and  C_6
DOCKED: REMARK    5  A    between atoms: C_6  and  C_7
DOCKED: REMARK    6  A    between atoms: C_7  and  C_8
DOCKED: REMARK    7  A    between atoms: C_8  and  C_9
DOCKED: REMARK    8  A    between atoms: C_9  and  C_10
DOCKED: REMARK    9  A    between atoms: N_11  and  O_12
DOCKED: REMARK                            x       y       z     vdW  Elec       q    Type
DOCKED: REMARK                         _______ _______ _______ _____ _____    ______ ____
DOCKED: USER                              x       y       z     vdW  Elec       q    Type
DOCKED: USER                           _______ _______ _______ _____ _____    ______ ____
DOCKED: ROOT
DOCKED: ATOM      1  C   UNL     1      24.406 -16.869  -0.976 -0.64 -0.00    +0.000 C 
DOCKED: ENDROOT
DOCKED: BRANCH   1   2
DOCKED: ATOM      2  C   UNL     1      23.783 -18.240  -1.269 -0.78 -0.00    +0.000 C 
DOCKED: BRANCH   2   3
DOCKED: ATOM      3  C   UNL     1      22.772 -18.627  -0.186 -0.79 -0.00    +0.000 C 
DOCKED: BRANCH   3   5
DOCKED: ATOM      4  N   UNL     1      20.649 -19.798  -0.943 -0.79 -0.00    +0.000 N 
DOCKED: ATOM      5  C   UNL     1      21.377 -18.585  -0.731 -0.86 -0.00    +0.000 C 
DOCKED: ATOM      6  O   UNL     1      20.859 -17.478  -1.040 -2.01 -0.00    +0.000 OA
DOCKED: ATOM      7  H   UNL     1      21.070 -20.662  -0.734 -0.03 -0.00    +0.000 HD
DOCKED: BRANCH   4   8
DOCKED: ATOM      8  O   UNL     1      19.386 -19.767  -1.431 -1.40 -0.00    +0.000 OA
DOCKED: ATOM      9  H   UNL     1      19.122 -18.845  -1.584 -0.55 -0.00    +0.000 HD
DOCKED: ENDBRANCH   4   8
DOCKED: ENDBRANCH   3   5
DOCKED: ENDBRANCH   2   3
DOCKED: ENDBRANCH   1   2
DOCKED: BRANCH   1  10
DOCKED: ATOM     10  C   UNL     1      25.928 -16.901  -1.174 -0.57 -0.00    +0.000 C 
DOCKED: BRANCH  10  11
DOCKED: ATOM     11  C   UNL     1      26.510 -15.542  -1.603 -0.41 -0.00    +0.000 C 
DOCKED: BRANCH  11  12
DOCKED: ATOM     12  C   UNL     1      28.039 -15.443  -1.459 -0.25 -0.00    +0.000 C 
DOCKED: BRANCH  12  13
DOCKED: ATOM     13  C   UNL     1      28.484 -15.390  -0.025 -0.25 -0.00    +0.000 C 
DOCKED: ATOM     14  N   UNL     1      27.684 -14.726   0.959 -0.28 -0.00    +0.000 N 
DOCKED: ATOM     15  O   UNL     1      29.582 -15.911   0.309 -0.20 -0.00    +0.000 OA
DOCKED: ATOM     16  H   UNL     1      26.838 -14.299   0.692 -0.01 -0.00    +0.000 HD
DOCKED: BRANCH  14  17
DOCKED: ATOM     17  O   UNL     1      28.080 -14.681   2.253 -0.33 -0.00    +0.000 OA
DOCKED: ATOM     18  H   UNL     1      28.866 -15.238   2.369 -1.90 -0.00    +0.000 HD
DOCKED: ENDBRANCH  14  17
DOCKED: ENDBRANCH  12  13
DOCKED: ENDBRANCH  11  12
DOCKED: ENDBRANCH  10  11
DOCKED: ENDBRANCH   1  10
DOCKED: TORSDOF 9
DOCKED: TER
DOCKED: ENDMDL
________________________________________________________________________________


	BEGINNING GENETIC ALGORITHM DOCKING 20 of 100
Run: 20 Seed: 1365041941 629362107 [ Run 20 of 100 GA/GALS ]
Beginning LAMARCKIAN GENETIC ALGORITHM (LGA), with a maximum of 2500000 energy evaluations.

Final-Value: -13.236


	FINAL GENETIC ALGORITHM DOCKED STATE
	_______________________________________________


Detailed state:  trans 24.081 -17.935 -2.398 quatxyzw -0.446644 0.858274 -0.211689 0.138071 center 0.359 0.163 0.443 ntor 9 169.9678 -1.7705 -25.5207 52.5994 -89.6359 133.6219 -105.3055 -172.9707 -119.6616
State:	 24.081 -17.935  -2.398  -0.451  0.867 -0.214 164.128    169.97   -1.77  -25.52   52.60  -89.64  133.62 -105.31 -172.97 -119.66

DOCKED: MODEL       20
DOCKED: USER    Run = 20
DOCKED: USER    DPF = ligand_dock.biased.dpf
DOCKED: USER  
DOCKED: USER    Estimated Free Energy of Binding    =   -9.02 kcal/mol  [=(1)+(2)+(3)-(4)]
DOCKED: USER    Estimated Inhibition Constant, Ki   =  244.20 nM (nanomolar)  [Temperature = 298.15 K]
DOCKED: USER    
DOCKED: USER    (1) Final Intermolecular Energy     =  -11.71 kcal/mol
DOCKED: USER        vdW + Hbond + desolv Energy     =  -11.71 kcal/mol
DOCKED: USER        Electrostatic Energy            =   +0.00 kcal/mol
DOCKED: USER    (2) Final Total Internal Energy     =   -1.53 kcal/mol
DOCKED: USER    (3) Torsional Free Energy           =   +2.68 kcal/mol
DOCKED: USER    (4) Unbound System's Energy  [=(2)] =   -1.53 kcal/mol
DOCKED: USER    
DOCKED: USER    
DOCKED: USER    NEWDPF move ligand.pdbqt
DOCKED: USER    NEWDPF about 0.359000 0.163000 0.443000
DOCKED: USER    NEWDPF tran0 24.080791 -17.935302 -2.397898
DOCKED: USER    NEWDPF quaternion0 -0.446644 0.858274 -0.211689 0.138071
DOCKED: USER    NEWDPF axisangle0 -0.450963 0.866573 -0.213736 164.127580
DOCKED: USER    NEWDPF quat0 -0.450963 0.866573 -0.213736 164.127580
DOCKED: USER    NEWDPF dihe0 169.97 -1.77 -25.52 52.60 -89.64 133.62 -105.31 -172.97 -119.66 
DOCKED: USER  keepresnum = 1 
DOCKED: USER  
DOCKED: REMARK  Name = 
DOCKED: REMARK  9 active torsions:
DOCKED: REMARK  status: ('A' for Active; 'I' for Inactive)
DOCKED: REMARK    1  A    between atoms: O_1  and  N_2
DOCKED: REMARK    2  A    between atoms: C_3  and  C_4
DOCKED: REMARK    3  A    between atoms: C_4  and  C_5
DOCKED: REMARK    4  A    between atoms: C_5  and  C_6
DOCKED: REMARK    5  A    between atoms: C_6  and  C_7
DOCKED: REMARK    6  A    between atoms: C_7  and  C_8
DOCKED: REMARK    7  A    between atoms: C_8  and  C_9
DOCKED: REMARK    8  A    between atoms: C_9  and  C_10
DOCKED: REMARK    9  A    between atoms: N_11  and  O_12
DOCKED: REMARK                            x       y       z     vdW  Elec       q    Type
DOCKED: REMARK                         _______ _______ _______ _____ _____    ______ ____
DOCKED: USER                              x       y       z     vdW  Elec       q    Type
DOCKED: USER                           _______ _______ _______ _____ _____    ______ ____
DOCKED: ROOT
DOCKED: ATOM      1  C   UNL     1      24.291 -17.247  -1.776 -0.62 -0.00    +0.000 C 
DOCKED: ENDROOT
DOCKED: BRANCH   1   2
DOCKED: ATOM      2  C   UNL     1      23.883 -18.634  -1.266 -0.76 -0.00    +0.000 C 
DOCKED: BRANCH   2   3
DOCKED: ATOM      3  C   UNL     1      22.785 -18.528  -0.203 -0.81 -0.00    +0.000 C 
DOCKED: BRANCH   3   5
DOCKED: ATOM      4  N   UNL     1      21.055 -19.715  -1.635 -0.69 -0.00    +0.000 N 
DOCKED: ATOM      5  C   UNL     1      21.430 -18.586  -0.841 -0.84 -0.00    +0.000 C 
DOCKED: ATOM      6  O   UNL     1      20.634 -17.617  -0.709 -2.18 +0.00    +0.000 OA
DOCKED: ATOM      7  H   UNL     1      21.693 -20.453  -1.765 -0.39 -0.00    +0.000 HD
DOCKED: BRANCH   4   8
DOCKED: ATOM      8  O   UNL     1      19.831 -19.776  -2.211 -1.83 -0.00    +0.000 OA
DOCKED: ATOM      9  H   UNL     1      19.275 -19.061  -1.863 -0.46 -0.00    +0.000 HD
DOCKED: ENDBRANCH   4   8
DOCKED: ENDBRANCH   3   5
DOCKED: ENDBRANCH   2   3
DOCKED: ENDBRANCH   1   2
DOCKED: BRANCH   1  10
DOCKED: ATOM     10  C   UNL     1      25.172 -16.519  -0.750 -0.54 -0.00    +0.000 C 
DOCKED: BRANCH  10  11
DOCKED: ATOM     11  C   UNL     1      26.567 -17.153  -0.594 -0.55 -0.00    +0.000 C 
DOCKED: BRANCH  11  12
DOCKED: ATOM     12  C   UNL     1      27.714 -16.280  -1.132 -0.37 -0.00    +0.000 C 
DOCKED: BRANCH  12  13
DOCKED: ATOM     13  C   UNL     1      28.819 -17.092  -1.748 -0.29 -0.00    +0.000 C 
DOCKED: ATOM     14  N   UNL     1      29.655 -17.916  -0.931 -0.25 -0.00    +0.000 N 
DOCKED: ATOM     15  O   UNL     1      29.026 -17.025  -2.990 -0.30 -0.00    +0.000 OA
DOCKED: ATOM     16  H   UNL     1      29.508 -17.949   0.042 -0.58 -0.00    +0.000 HD
DOCKED: BRANCH  14  17
DOCKED: ATOM     17  O   UNL     1      30.649 -18.652  -1.485 -0.24 -0.00    +0.000 OA
DOCKED: ATOM     18  H   UNL     1      30.642 -18.530  -2.447 -0.01 -0.00    +0.000 HD
DOCKED: ENDBRANCH  14  17
DOCKED: ENDBRANCH  12  13
DOCKED: ENDBRANCH  11  12
DOCKED: ENDBRANCH  10  11
DOCKED: ENDBRANCH   1  10
DOCKED: TORSDOF 9
DOCKED: TER
DOCKED: ENDMDL
________________________________________________________________________________


	BEGINNING GENETIC ALGORITHM DOCKING 21 of 100
Run: 21 Seed: 883279859 1947864251 [ Run 21 of 100 GA/GALS ]
Beginning LAMARCKIAN GENETIC ALGORITHM (LGA), with a maximum of 2500000 energy evaluations.

Final-Value: -14.702


	FINAL GENETIC ALGORITHM DOCKED STATE
	_______________________________________________


Detailed state:  trans 27.031 -17.232 -1.178 quatxyzw 0.625100 0.386013 0.499178 -0.459419 center 0.359 0.163 0.443 ntor 9 -179.2190 -4.8461 -76.9528 172.4370 88.3923 25.5293 -170.1031 179.2140 12.1606
State:	 27.031 -17.232  -1.178   0.704  0.435  0.562 -125.301   -179.22   -4.85  -76.95  172.44   88.39   25.53 -170.10  179.21   12.16

DOCKED: MODEL       21
DOCKED: USER    Run = 21
DOCKED: USER    DPF = ligand_dock.biased.dpf
DOCKED: USER  
DOCKED: USER    Estimated Free Energy of Binding    =  -10.38 kcal/mol  [=(1)+(2)+(3)-(4)]
DOCKED: USER    Estimated Inhibition Constant, Ki   =   24.73 nM (nanomolar)  [Temperature = 298.15 K]
DOCKED: USER    
DOCKED: USER    (1) Final Intermolecular Energy     =  -13.06 kcal/mol
DOCKED: USER        vdW + Hbond + desolv Energy     =  -13.06 kcal/mol
DOCKED: USER        Electrostatic Energy            =   +0.00 kcal/mol
DOCKED: USER    (2) Final Total Internal Energy     =   -1.64 kcal/mol
DOCKED: USER    (3) Torsional Free Energy           =   +2.68 kcal/mol
DOCKED: USER    (4) Unbound System's Energy  [=(2)] =   -1.64 kcal/mol
DOCKED: USER    
DOCKED: USER    
DOCKED: USER    NEWDPF move ligand.pdbqt
DOCKED: USER    NEWDPF about 0.359000 0.163000 0.443000
DOCKED: USER    NEWDPF tran0 27.030723 -17.231562 -1.178417
DOCKED: USER    NEWDPF quaternion0 0.625100 0.386013 0.499178 -0.459419
DOCKED: USER    NEWDPF axisangle0 0.703767 0.434591 0.561998 -125.300756
DOCKED: USER    NEWDPF quat0 0.703767 0.434591 0.561998 -125.300756
DOCKED: USER    NEWDPF dihe0 -179.22 -4.85 -76.95 172.44 88.39 25.53 -170.10 179.21 12.16 
DOCKED: USER  keepresnum = 1 
DOCKED: USER  
DOCKED: REMARK  Name = 
DOCKED: REMARK  9 active torsions:
DOCKED: REMARK  status: ('A' for Active; 'I' for Inactive)
DOCKED: REMARK    1  A    between atoms: O_1  and  N_2
DOCKED: REMARK    2  A    between atoms: C_3  and  C_4
DOCKED: REMARK    3  A    between atoms: C_4  and  C_5
DOCKED: REMARK    4  A    between atoms: C_5  and  C_6
DOCKED: REMARK    5  A    between atoms: C_6  and  C_7
DOCKED: REMARK    6  A    between atoms: C_7  and  C_8
DOCKED: REMARK    7  A    between atoms: C_8  and  C_9
DOCKED: REMARK    8  A    between atoms: C_9  and  C_10
DOCKED: REMARK    9  A    between atoms: N_11  and  O_12
DOCKED: REMARK                            x       y       z     vdW  Elec       q    Type
DOCKED: REMARK                         _______ _______ _______ _____ _____    ______ ____
DOCKED: USER                              x       y       z     vdW  Elec       q    Type
DOCKED: USER                           _______ _______ _______ _____ _____    ______ ____
DOCKED: ROOT
DOCKED: ATOM      1  C   UNL     1      26.093 -17.393  -1.172 -0.57 -0.00    +0.000 C 
DOCKED: ENDROOT
DOCKED: BRANCH   1   2
DOCKED: ATOM      2  C   UNL     1      26.617 -15.956  -1.282 -0.43 -0.00    +0.000 C 
DOCKED: BRANCH   2   3
DOCKED: ATOM      3  C   UNL     1      25.509 -15.000  -1.735 -0.34 -0.00    +0.000 C 
DOCKED: BRANCH   3   5
DOCKED: ATOM      4  N   UNL     1      26.353 -15.706  -4.024 -0.48 -0.00    +0.000 N 
DOCKED: ATOM      5  C   UNL     1      25.502 -14.877  -3.229 -0.54 -0.00    +0.000 C 
DOCKED: ATOM      6  O   UNL     1      24.771 -14.011  -3.782 -0.98 -0.00    +0.000 OA
DOCKED: ATOM      7  H   UNL     1      26.949 -16.356  -3.587 -0.02 -0.00    +0.000 HD
DOCKED: BRANCH   4   8
DOCKED: ATOM      8  O   UNL     1      26.349 -15.603  -5.375 -1.20 +0.00    +0.000 OA
DOCKED: ATOM      9  H   UNL     1      25.722 -14.912  -5.644 -0.02 -0.00    +0.000 HD
DOCKED: ENDBRANCH   4   8
DOCKED: ENDBRANCH   3   5
DOCKED: ENDBRANCH   2   3
DOCKED: ENDBRANCH   1   2
DOCKED: BRANCH   1  10
DOCKED: ATOM     10  C   UNL     1      24.698 -17.521  -1.801 -0.66 -0.00    +0.000 C 
DOCKED: BRANCH  10  11
DOCKED: ATOM     11  C   UNL     1      23.916 -18.746  -1.292 -0.71 -0.00    +0.000 C 
DOCKED: BRANCH  11  12
DOCKED: ATOM     12  C   UNL     1      22.823 -18.407  -0.263 -0.82 -0.00    +0.000 C 
DOCKED: BRANCH  12  13
DOCKED: ATOM     13  C   UNL     1      21.437 -18.520  -0.832 -0.83 -0.00    +0.000 C 
DOCKED: ATOM     14  N   UNL     1      21.033 -19.704  -1.527 -0.73 -0.00    +0.000 N 
DOCKED: ATOM     15  O   UNL     1      20.634 -17.555  -0.719 -2.13 +0.00    +0.000 OA
DOCKED: ATOM     16  H   UNL     1      21.669 -20.447  -1.636 -0.35 -0.00    +0.000 HD
DOCKED: BRANCH  14  17
DOCKED: ATOM     17  O   UNL     1      19.783 -19.809  -2.037 -1.78 -0.00    +0.000 OA
DOCKED: ATOM     18  H   UNL     1      19.263 -19.031  -1.780 -0.48 -0.00    +0.000 HD
DOCKED: ENDBRANCH  14  17
DOCKED: ENDBRANCH  12  13
DOCKED: ENDBRANCH  11  12
DOCKED: ENDBRANCH  10  11
DOCKED: ENDBRANCH   1  10
DOCKED: TORSDOF 9
DOCKED: TER
DOCKED: ENDMDL
________________________________________________________________________________


	BEGINNING GENETIC ALGORITHM DOCKING 22 of 100
Run: 22 Seed: 709757950 1888842178 [ Run 22 of 100 GA/GALS ]
Beginning LAMARCKIAN GENETIC ALGORITHM (LGA), with a maximum of 2500000 energy evaluations.

Final-Value: -12.957


	FINAL GENETIC ALGORITHM DOCKED STATE
	_______________________________________________


Detailed state:  trans 24.784 -18.908 0.557 quatxyzw 0.115229 0.216392 -0.969116 0.026664 center 0.359 0.163 0.443 ntor 9 -149.1492 4.9546 145.1161 147.4551 -33.7019 149.2610 -106.5635 -29.7676 -178.5069
State:	 24.784 -18.908   0.557   0.115  0.216 -0.969 176.944   -149.15    4.95  145.12  147.46  -33.70  149.26 -106.56  -29.77 -178.51

DOCKED: MODEL       22
DOCKED: USER    Run = 22
DOCKED: USER    DPF = ligand_dock.biased.dpf
DOCKED: USER  
DOCKED: USER    Estimated Free Energy of Binding    =   -8.89 kcal/mol  [=(1)+(2)+(3)-(4)]
DOCKED: USER    Estimated Inhibition Constant, Ki   =  302.44 nM (nanomolar)  [Temperature = 298.15 K]
DOCKED: USER    
DOCKED: USER    (1) Final Intermolecular Energy     =  -11.58 kcal/mol
DOCKED: USER        vdW + Hbond + desolv Energy     =  -11.58 kcal/mol
DOCKED: USER        Electrostatic Energy            =   +0.00 kcal/mol
DOCKED: USER    (2) Final Total Internal Energy     =   -1.38 kcal/mol
DOCKED: USER    (3) Torsional Free Energy           =   +2.68 kcal/mol
DOCKED: USER    (4) Unbound System's Energy  [=(2)] =   -1.38 kcal/mol
DOCKED: USER    
DOCKED: USER    
DOCKED: USER    NEWDPF move ligand.pdbqt
DOCKED: USER    NEWDPF about 0.359000 0.163000 0.443000
DOCKED: USER    NEWDPF tran0 24.784008 -18.908443 0.557280
DOCKED: USER    NEWDPF quaternion0 0.115229 0.216392 -0.969116 0.026664
DOCKED: USER    NEWDPF axisangle0 0.115270 0.216469 -0.969461 176.944202
DOCKED: USER    NEWDPF quat0 0.115270 0.216469 -0.969461 176.944202
DOCKED: USER    NEWDPF dihe0 -149.15 4.95 145.12 147.46 -33.70 149.26 -106.56 -29.77 -178.51 
DOCKED: USER  keepresnum = 1 
DOCKED: USER  
DOCKED: REMARK  Name = 
DOCKED: REMARK  9 active torsions:
DOCKED: REMARK  status: ('A' for Active; 'I' for Inactive)
DOCKED: REMARK    1  A    between atoms: O_1  and  N_2
DOCKED: REMARK    2  A    between atoms: C_3  and  C_4
DOCKED: REMARK    3  A    between atoms: C_4  and  C_5
DOCKED: REMARK    4  A    between atoms: C_5  and  C_6
DOCKED: REMARK    5  A    between atoms: C_6  and  C_7
DOCKED: REMARK    6  A    between atoms: C_7  and  C_8
DOCKED: REMARK    7  A    between atoms: C_8  and  C_9
DOCKED: REMARK    8  A    between atoms: C_9  and  C_10
DOCKED: REMARK    9  A    between atoms: N_11  and  O_12
DOCKED: REMARK                            x       y       z     vdW  Elec       q    Type
DOCKED: REMARK                         _______ _______ _______ _____ _____    ______ ____
DOCKED: USER                              x       y       z     vdW  Elec       q    Type
DOCKED: USER                           _______ _______ _______ _____ _____    ______ ____
DOCKED: ROOT
DOCKED: ATOM      1  C   UNL     1      25.324 -18.602  -0.164 -0.55 -0.00    +0.000 C 
DOCKED: ENDROOT
DOCKED: BRANCH   1   2
DOCKED: ATOM      2  C   UNL     1      23.876 -18.112  -0.036 -0.71 -0.00    +0.000 C 
DOCKED: BRANCH   2   3
DOCKED: ATOM      3  C   UNL     1      23.134 -18.238  -1.370 -0.75 -0.00    +0.000 C 
DOCKED: BRANCH   3   5
DOCKED: ATOM      4  N   UNL     1      21.063 -19.626  -1.857 -0.62 -0.00    +0.000 N 
DOCKED: ATOM      5  C   UNL     1      21.688 -18.560  -1.138 -0.72 -0.00    +0.000 C 
DOCKED: ATOM      6  O   UNL     1      21.013 -17.861  -0.336 -1.94 +0.00    +0.000 OA
DOCKED: ATOM      7  H   UNL     1      21.585 -20.147  -2.509 -0.60 -0.00    +0.000 HD
DOCKED: BRANCH   4   8
DOCKED: ATOM      8  O   UNL     1      19.758 -19.925  -1.649 -1.65 -0.00    +0.000 OA
DOCKED: ATOM      9  H   UNL     1      19.277 -19.117  -1.408 -0.40 -0.00    +0.000 HD
DOCKED: ENDBRANCH   4   8
DOCKED: ENDBRANCH   3   5
DOCKED: ENDBRANCH   2   3
DOCKED: ENDBRANCH   1   2
DOCKED: BRANCH   1  10
DOCKED: ATOM     10  C   UNL     1      26.186 -17.583  -0.923 -0.59 -0.00    +0.000 C 
DOCKED: BRANCH  10  11
DOCKED: ATOM     11  C   UNL     1      25.475 -16.236  -1.143 -0.55 -0.00    +0.000 C 
DOCKED: BRANCH  11  12
DOCKED: ATOM     12  C   UNL     1      24.996 -16.010  -2.589 -0.41 -0.00    +0.000 C 
DOCKED: BRANCH  12  13
DOCKED: ATOM     13  C   UNL     1      25.435 -14.685  -3.144 -0.49 -0.00    +0.000 C 
DOCKED: ATOM     14  N   UNL     1      26.608 -14.040  -2.640 -0.27 -0.00    +0.000 N 
DOCKED: ATOM     15  O   UNL     1      24.750 -14.126  -4.042 -1.11 -0.00    +0.000 OA
DOCKED: ATOM     16  H   UNL     1      27.130 -14.466  -1.921 +0.00 -0.00    +0.000 HD
DOCKED: BRANCH  14  17
DOCKED: ATOM     17  O   UNL     1      27.008 -12.847  -3.142 -0.21 -0.00    +0.000 OA
DOCKED: ATOM     18  H   UNL     1      26.350 -12.529  -3.780 -0.01 -0.00    +0.000 HD
DOCKED: ENDBRANCH  14  17
DOCKED: ENDBRANCH  12  13
DOCKED: ENDBRANCH  11  12
DOCKED: ENDBRANCH  10  11
DOCKED: ENDBRANCH   1  10
DOCKED: TORSDOF 9
DOCKED: TER
DOCKED: ENDMDL
________________________________________________________________________________


	BEGINNING GENETIC ALGORITHM DOCKING 23 of 100
Run: 23 Seed: 32181660 1677968042 [ Run 23 of 100 GA/GALS ]
Beginning LAMARCKIAN GENETIC ALGORITHM (LGA), with a maximum of 2500000 energy evaluations.

Final-Value: -13.929


	FINAL GENETIC ALGORITHM DOCKED STATE
	_______________________________________________


Detailed state:  trans 24.077 -16.570 -1.229 quatxyzw 0.321904 -0.816533 -0.470933 -0.088731 center 0.359 0.163 0.443 ntor 9 -180.0000 -7.6116 -7.0566 -100.3924 -37.9912 -127.7572 -99.6947 174.4301 -79.0893
State:	 24.077 -16.570  -1.229   0.323 -0.820 -0.473 -169.819   -180.00   -7.61   -7.06 -100.39  -37.99 -127.76  -99.69  174.43  -79.09

DOCKED: MODEL       23
DOCKED: USER    Run = 23
DOCKED: USER    DPF = ligand_dock.biased.dpf
DOCKED: USER  
DOCKED: USER    Estimated Free Energy of Binding    =   -9.72 kcal/mol  [=(1)+(2)+(3)-(4)]
DOCKED: USER    Estimated Inhibition Constant, Ki   =   74.79 nM (nanomolar)  [Temperature = 298.15 K]
DOCKED: USER    
DOCKED: USER    (1) Final Intermolecular Energy     =  -12.41 kcal/mol
DOCKED: USER        vdW + Hbond + desolv Energy     =  -12.41 kcal/mol
DOCKED: USER        Electrostatic Energy            =   +0.00 kcal/mol
DOCKED: USER    (2) Final Total Internal Energy     =   -1.52 kcal/mol
DOCKED: USER    (3) Torsional Free Energy           =   +2.68 kcal/mol
DOCKED: USER    (4) Unbound System's Energy  [=(2)] =   -1.52 kcal/mol
DOCKED: USER    
DOCKED: USER    
DOCKED: USER    NEWDPF move ligand.pdbqt
DOCKED: USER    NEWDPF about 0.359000 0.163000 0.443000
DOCKED: USER    NEWDPF tran0 24.076608 -16.570130 -1.229249
DOCKED: USER    NEWDPF quaternion0 0.321904 -0.816533 -0.470933 -0.088731
DOCKED: USER    NEWDPF axisangle0 0.323179 -0.819767 -0.472798 -169.818823
DOCKED: USER    NEWDPF quat0 0.323179 -0.819767 -0.472798 -169.818823
DOCKED: USER    NEWDPF dihe0 -180.00 -7.61 -7.06 -100.39 -37.99 -127.76 -99.69 174.43 -79.09 
DOCKED: USER  keepresnum = 1 
DOCKED: USER  
DOCKED: REMARK  Name = 
DOCKED: REMARK  9 active torsions:
DOCKED: REMARK  status: ('A' for Active; 'I' for Inactive)
DOCKED: REMARK    1  A    between atoms: O_1  and  N_2
DOCKED: REMARK    2  A    between atoms: C_3  and  C_4
DOCKED: REMARK    3  A    between atoms: C_4  and  C_5
DOCKED: REMARK    4  A    between atoms: C_5  and  C_6
DOCKED: REMARK    5  A    between atoms: C_6  and  C_7
DOCKED: REMARK    6  A    between atoms: C_7  and  C_8
DOCKED: REMARK    7  A    between atoms: C_8  and  C_9
DOCKED: REMARK    8  A    between atoms: C_9  and  C_10
DOCKED: REMARK    9  A    between atoms: N_11  and  O_12
DOCKED: REMARK                            x       y       z     vdW  Elec       q    Type
DOCKED: REMARK                         _______ _______ _______ _____ _____    ______ ____
DOCKED: USER                              x       y       z     vdW  Elec       q    Type
DOCKED: USER                           _______ _______ _______ _____ _____    ______ ____
DOCKED: ROOT
DOCKED: ATOM      1  C   UNL     1      24.727 -16.984  -0.671 -0.61 -0.00    +0.000 C 
DOCKED: ENDROOT
DOCKED: BRANCH   1   2
DOCKED: ATOM      2  C   UNL     1      23.722 -17.851  -1.442 -0.75 -0.00    +0.000 C 
DOCKED: BRANCH   2   3
DOCKED: ATOM      3  C   UNL     1      22.952 -18.774  -0.493 -0.81 -0.00    +0.000 C 
DOCKED: BRANCH   3   5
DOCKED: ATOM      4  N   UNL     1      21.178 -19.725  -2.042 -0.39 -0.00    +0.000 N 
DOCKED: ATOM      5  C   UNL     1      21.523 -18.899  -0.927 -0.85 -0.00    +0.000 C 
DOCKED: ATOM      6  O   UNL     1      20.629 -18.240  -0.331 -2.02 -0.00    +0.000 OA
DOCKED: ATOM      7  H   UNL     1      21.884 -20.210  -2.527 -0.59 -0.00    +0.000 HD
DOCKED: BRANCH   4   8
DOCKED: ATOM      8  O   UNL     1      19.888 -19.846  -2.437 -1.72 -0.00    +0.000 OA
DOCKED: ATOM      9  H   UNL     1      19.322 -19.308  -1.859 -0.41 -0.00    +0.000 HD
DOCKED: ENDBRANCH   4   8
DOCKED: ENDBRANCH   3   5
DOCKED: ENDBRANCH   2   3
DOCKED: ENDBRANCH   1   2
DOCKED: BRANCH   1  10
DOCKED: ATOM     10  C   UNL     1      26.017 -17.764  -0.379 -0.64 -0.00    +0.000 C 
DOCKED: BRANCH  10  11
DOCKED: ATOM     11  C   UNL     1      27.223 -17.263  -1.195 -0.45 -0.00    +0.000 C 
DOCKED: BRANCH  11  12
DOCKED: ATOM     12  C   UNL     1      28.147 -16.306  -0.422 -0.33 -0.00    +0.000 C 
DOCKED: BRANCH  12  13
DOCKED: ATOM     13  C   UNL     1      27.388 -15.240   0.318 -0.32 -0.00    +0.000 C 
DOCKED: ATOM     14  N   UNL     1      27.768 -14.869   1.647 -0.28 -0.00    +0.000 N 
DOCKED: ATOM     15  O   UNL     1      26.394 -14.689  -0.226 -0.37 -0.00    +0.000 OA
DOCKED: ATOM     16  H   UNL     1      28.531 -15.318   2.080 -1.47 -0.00    +0.000 HD
DOCKED: BRANCH  14  17
DOCKED: ATOM     17  O   UNL     1      27.089 -13.907   2.314 -0.39 -0.00    +0.000 OA
DOCKED: ATOM     18  H   UNL     1      26.453 -13.486   1.714 -0.02 -0.00    +0.000 HD
DOCKED: ENDBRANCH  14  17
DOCKED: ENDBRANCH  12  13
DOCKED: ENDBRANCH  11  12
DOCKED: ENDBRANCH  10  11
DOCKED: ENDBRANCH   1  10
DOCKED: TORSDOF 9
DOCKED: TER
DOCKED: ENDMDL
________________________________________________________________________________


	BEGINNING GENETIC ALGORITHM DOCKING 24 of 100
Run: 24 Seed: 416324372 163672104 [ Run 24 of 100 GA/GALS ]
Beginning LAMARCKIAN GENETIC ALGORITHM (LGA), with a maximum of 2500000 energy evaluations.

Final-Value: -13.934


	FINAL GENETIC ALGORITHM DOCKED STATE
	_______________________________________________


Detailed state:  trans 24.226 -15.730 -1.674 quatxyzw -0.639416 -0.160621 0.318982 -0.680881 center 0.359 0.163 0.443 ntor 9 -179.9668 -20.8286 -173.0376 169.9154 113.3494 38.3784 -34.8929 26.5034 -29.9637
State:	 24.226 -15.730  -1.674  -0.873 -0.219  0.436 -94.175   -179.97  -20.83 -173.04  169.92  113.35   38.38  -34.89   26.50  -29.96

DOCKED: MODEL       24
DOCKED: USER    Run = 24
DOCKED: USER    DPF = ligand_dock.biased.dpf
DOCKED: USER  
DOCKED: USER    Estimated Free Energy of Binding    =   -9.65 kcal/mol  [=(1)+(2)+(3)-(4)]
DOCKED: USER    Estimated Inhibition Constant, Ki   =   84.56 nM (nanomolar)  [Temperature = 298.15 K]
DOCKED: USER    
DOCKED: USER    (1) Final Intermolecular Energy     =  -12.33 kcal/mol
DOCKED: USER        vdW + Hbond + desolv Energy     =  -12.33 kcal/mol
DOCKED: USER        Electrostatic Energy            =   +0.00 kcal/mol
DOCKED: USER    (2) Final Total Internal Energy     =   -1.60 kcal/mol
DOCKED: USER    (3) Torsional Free Energy           =   +2.68 kcal/mol
DOCKED: USER    (4) Unbound System's Energy  [=(2)] =   -1.60 kcal/mol
DOCKED: USER    
DOCKED: USER    
DOCKED: USER    NEWDPF move ligand.pdbqt
DOCKED: USER    NEWDPF about 0.359000 0.163000 0.443000
DOCKED: USER    NEWDPF tran0 24.226187 -15.729695 -1.673800
DOCKED: USER    NEWDPF quaternion0 -0.639416 -0.160621 0.318982 -0.680881
DOCKED: USER    NEWDPF axisangle0 -0.873049 -0.219309 0.435533 -94.175000
DOCKED: USER    NEWDPF quat0 -0.873049 -0.219309 0.435533 -94.175000
DOCKED: USER    NEWDPF dihe0 -179.97 -20.83 -173.04 169.92 113.35 38.38 -34.89 26.50 -29.96 
DOCKED: USER  keepresnum = 1 
DOCKED: USER  
DOCKED: REMARK  Name = 
DOCKED: REMARK  9 active torsions:
DOCKED: REMARK  status: ('A' for Active; 'I' for Inactive)
DOCKED: REMARK    1  A    between atoms: O_1  and  N_2
DOCKED: REMARK    2  A    between atoms: C_3  and  C_4
DOCKED: REMARK    3  A    between atoms: C_4  and  C_5
DOCKED: REMARK    4  A    between atoms: C_5  and  C_6
DOCKED: REMARK    5  A    between atoms: C_6  and  C_7
DOCKED: REMARK    6  A    between atoms: C_7  and  C_8
DOCKED: REMARK    7  A    between atoms: C_8  and  C_9
DOCKED: REMARK    8  A    between atoms: C_9  and  C_10
DOCKED: REMARK    9  A    between atoms: N_11  and  O_12
DOCKED: REMARK                            x       y       z     vdW  Elec       q    Type
DOCKED: REMARK                         _______ _______ _______ _____ _____    ______ ____
DOCKED: USER                              x       y       z     vdW  Elec       q    Type
DOCKED: USER                           _______ _______ _______ _____ _____    ______ ____
DOCKED: ROOT
DOCKED: ATOM      1  C   UNL     1      24.522 -16.631  -1.754 -0.58 -0.00    +0.000 C 
DOCKED: ENDROOT
DOCKED: BRANCH   1   2
DOCKED: ATOM      2  C   UNL     1      25.544 -15.513  -1.510 -0.46 -0.00    +0.000 C 
DOCKED: BRANCH   2   3
DOCKED: ATOM      3  C   UNL     1      25.506 -14.478  -2.638 -0.36 -0.00    +0.000 C 
DOCKED: BRANCH   3   5
DOCKED: ATOM      4  N   UNL     1      27.362 -15.058  -4.272 -0.37 -0.00    +0.000 N 
DOCKED: ATOM      5  C   UNL     1      25.975 -15.088  -3.925 -0.58 -0.00    +0.000 C 
DOCKED: ATOM      6  O   UNL     1      25.138 -15.592  -4.720 -0.73 -0.00    +0.000 OA
DOCKED: ATOM      7  H   UNL     1      28.008 -14.631  -3.665 +0.00 -0.00    +0.000 HD
DOCKED: BRANCH   4   8
DOCKED: ATOM      8  O   UNL     1      27.794 -15.610  -5.431 -0.87 +0.00    +0.000 OA
DOCKED: ATOM      9  H   UNL     1      27.038 -15.984  -5.911 -0.00 +0.00    +0.000 HD
DOCKED: ENDBRANCH   4   8
DOCKED: ENDBRANCH   3   5
DOCKED: ENDBRANCH   2   3
DOCKED: ENDBRANCH   1   2
DOCKED: BRANCH   1  10
DOCKED: ATOM     10  C   UNL     1      25.041 -17.977  -1.229 -0.65 -0.00    +0.000 C 
DOCKED: BRANCH  10  11
DOCKED: ATOM     11  C   UNL     1      23.918 -18.997  -0.966 -0.71 -0.00    +0.000 C 
DOCKED: BRANCH  11  12
DOCKED: ATOM     12  C   UNL     1      22.751 -18.441  -0.130 -0.80 -0.00    +0.000 C 
DOCKED: BRANCH  12  13
DOCKED: ATOM     13  C   UNL     1      21.440 -18.492  -0.861 -0.82 -0.00    +0.000 C 
DOCKED: ATOM     14  N   UNL     1      21.023 -19.691  -1.521 -0.73 -0.00    +0.000 N 
DOCKED: ATOM     15  O   UNL     1      20.713 -17.463  -0.914 -2.05 -0.00    +0.000 OA
DOCKED: ATOM     16  H   UNL     1      21.603 -20.486  -1.499 -0.29 -0.00    +0.000 HD
DOCKED: BRANCH  14  17
DOCKED: ATOM     17  O   UNL     1      19.839 -19.740  -2.177 -1.85 -0.00    +0.000 OA
DOCKED: ATOM     18  H   UNL     1      19.258 -19.037  -1.846 -0.48 -0.00    +0.000 HD
DOCKED: ENDBRANCH  14  17
DOCKED: ENDBRANCH  12  13
DOCKED: ENDBRANCH  11  12
DOCKED: ENDBRANCH  10  11
DOCKED: ENDBRANCH   1  10
DOCKED: TORSDOF 9
DOCKED: TER
DOCKED: ENDMDL
________________________________________________________________________________


	BEGINNING GENETIC ALGORITHM DOCKING 25 of 100
Run: 25 Seed: 1161497872 209885474 [ Run 25 of 100 GA/GALS ]
Beginning LAMARCKIAN GENETIC ALGORITHM (LGA), with a maximum of 2500000 energy evaluations.

Final-Value: -12.922


	FINAL GENETIC ALGORITHM DOCKED STATE
	_______________________________________________


Detailed state:  trans 24.455 -19.089 -1.230 quatxyzw 0.369442 -0.500190 0.783033 -0.013477 center 0.359 0.163 0.443 ntor 9 180.0000 3.8019 -103.9046 56.5005 -89.7561 -25.5630 -143.0549 157.5956 -111.4707
State:	 24.455 -19.089  -1.230   0.369 -0.500  0.783 -178.456    180.00    3.80 -103.90   56.50  -89.76  -25.56 -143.05  157.60 -111.47

DOCKED: MODEL       25
DOCKED: USER    Run = 25
DOCKED: USER    DPF = ligand_dock.biased.dpf
DOCKED: USER  
DOCKED: USER    Estimated Free Energy of Binding    =   -8.57 kcal/mol  [=(1)+(2)+(3)-(4)]
DOCKED: USER    Estimated Inhibition Constant, Ki   =  521.60 nM (nanomolar)  [Temperature = 298.15 K]
DOCKED: USER    
DOCKED: USER    (1) Final Intermolecular Energy     =  -11.26 kcal/mol
DOCKED: USER        vdW + Hbond + desolv Energy     =  -11.26 kcal/mol
DOCKED: USER        Electrostatic Energy            =   +0.00 kcal/mol
DOCKED: USER    (2) Final Total Internal Energy     =   -1.67 kcal/mol
DOCKED: USER    (3) Torsional Free Energy           =   +2.68 kcal/mol
DOCKED: USER    (4) Unbound System's Energy  [=(2)] =   -1.67 kcal/mol
DOCKED: USER    
DOCKED: USER    
DOCKED: USER    NEWDPF move ligand.pdbqt
DOCKED: USER    NEWDPF about 0.359000 0.163000 0.443000
DOCKED: USER    NEWDPF tran0 24.454614 -19.088823 -1.230270
DOCKED: USER    NEWDPF quaternion0 0.369442 -0.500190 0.783033 -0.013477
DOCKED: USER    NEWDPF axisangle0 0.369475 -0.500235 0.783105 -178.455633
DOCKED: USER    NEWDPF quat0 0.369475 -0.500235 0.783105 -178.455633
DOCKED: USER    NEWDPF dihe0 180.00 3.80 -103.90 56.50 -89.76 -25.56 -143.05 157.60 -111.47 
DOCKED: USER  keepresnum = 1 
DOCKED: USER  
DOCKED: REMARK  Name = 
DOCKED: REMARK  9 active torsions:
DOCKED: REMARK  status: ('A' for Active; 'I' for Inactive)
DOCKED: REMARK    1  A    between atoms: O_1  and  N_2
DOCKED: REMARK    2  A    between atoms: C_3  and  C_4
DOCKED: REMARK    3  A    between atoms: C_4  and  C_5
DOCKED: REMARK    4  A    between atoms: C_5  and  C_6
DOCKED: REMARK    5  A    between atoms: C_6  and  C_7
DOCKED: REMARK    6  A    between atoms: C_7  and  C_8
DOCKED: REMARK    7  A    between atoms: C_8  and  C_9
DOCKED: REMARK    8  A    between atoms: C_9  and  C_10
DOCKED: REMARK    9  A    between atoms: N_11  and  O_12
DOCKED: REMARK                            x       y       z     vdW  Elec       q    Type
DOCKED: REMARK                         _______ _______ _______ _____ _____    ______ ____
DOCKED: USER                              x       y       z     vdW  Elec       q    Type
DOCKED: USER                           _______ _______ _______ _____ _____    ______ ____
DOCKED: ROOT
DOCKED: ATOM      1  C   UNL     1      24.189 -18.280  -1.656 -0.63 -0.00    +0.000 C 
DOCKED: ENDROOT
DOCKED: BRANCH   1   2
DOCKED: ATOM      2  C   UNL     1      23.485 -18.730  -0.370 -0.76 -0.00    +0.000 C 
DOCKED: BRANCH   2   3
DOCKED: ATOM      3  C   UNL     1      22.217 -17.907  -0.122 -0.77 -0.00    +0.000 C 
DOCKED: BRANCH   3   5
DOCKED: ATOM      4  N   UNL     1      21.217 -19.511  -1.818 -0.61 -0.00    +0.000 N 
DOCKED: ATOM      5  C   UNL     1      21.032 -18.563  -0.763 -0.83 -0.00    +0.000 C 
DOCKED: ATOM      6  O   UNL     1      19.868 -18.248  -0.397 -1.51 -0.00    +0.000 OA
DOCKED: ATOM      7  H   UNL     1      22.126 -19.728  -2.125 -0.47 -0.00    +0.000 HD
DOCKED: BRANCH   4   8
DOCKED: ATOM      8  O   UNL     1      20.150 -20.111  -2.399 -1.74 -0.00    +0.000 OA
DOCKED: ATOM      9  H   UNL     1      19.334 -19.789  -1.985 -0.35 -0.00    +0.000 HD
DOCKED: ENDBRANCH   4   8
DOCKED: ENDBRANCH   3   5
DOCKED: ENDBRANCH   2   3
DOCKED: ENDBRANCH   1   2
DOCKED: BRANCH   1  10
DOCKED: ATOM     10  C   UNL     1      24.112 -16.756  -1.823 -0.43 -0.00    +0.000 C 
DOCKED: BRANCH  10  11
DOCKED: ATOM     11  C   UNL     1      25.107 -15.998  -0.926 -0.45 -0.00    +0.000 C 
DOCKED: BRANCH  11  12
DOCKED: ATOM     12  C   UNL     1      26.535 -15.928  -1.495 -0.43 -0.00    +0.000 C 
DOCKED: BRANCH  12  13
DOCKED: ATOM     13  C   UNL     1      26.582 -15.325  -2.871 -0.43 -0.00    +0.000 C 
DOCKED: ATOM     14  N   UNL     1      25.957 -15.987  -3.975 -0.50 -0.00    +0.000 N 
DOCKED: ATOM     15  O   UNL     1      27.198 -14.241  -3.058 -0.25 -0.00    +0.000 OA
DOCKED: ATOM     16  H   UNL     1      25.497 -16.846  -3.832 -0.04 -0.00    +0.000 HD
DOCKED: BRANCH  14  17
DOCKED: ATOM     17  O   UNL     1      25.995 -15.443  -5.214 -1.02 +0.00    +0.000 OA
DOCKED: ATOM     18  H   UNL     1      26.532 -14.636  -5.196 -0.04 -0.00    +0.000 HD
DOCKED: ENDBRANCH  14  17
DOCKED: ENDBRANCH  12  13
DOCKED: ENDBRANCH  11  12
DOCKED: ENDBRANCH  10  11
DOCKED: ENDBRANCH   1  10
DOCKED: TORSDOF 9
DOCKED: TER
DOCKED: ENDMDL
________________________________________________________________________________


	BEGINNING GENETIC ALGORITHM DOCKING 26 of 100
Run: 26 Seed: 2117398584 321472340 [ Run 26 of 100 GA/GALS ]
Beginning LAMARCKIAN GENETIC ALGORITHM (LGA), with a maximum of 2500000 energy evaluations.

Final-Value: -14.237


	FINAL GENETIC ALGORITHM DOCKED STATE
	_______________________________________________


Detailed state:  trans 26.724 -16.905 -1.310 quatxyzw 0.240635 0.811145 0.164680 -0.506970 center 0.359 0.163 0.443 ntor 9 172.8312 -15.0759 -179.8646 -144.6479 -22.9765 105.1052 -35.6587 -106.7469 154.6832
State:	 26.724 -16.905  -1.310   0.279  0.941  0.191 -119.076    172.83  -15.08 -179.86 -144.65  -22.98  105.11  -35.66 -106.75  154.68

DOCKED: MODEL       26
DOCKED: USER    Run = 26
DOCKED: USER    DPF = ligand_dock.biased.dpf
DOCKED: USER  
DOCKED: USER    Estimated Free Energy of Binding    =  -10.11 kcal/mol  [=(1)+(2)+(3)-(4)]
DOCKED: USER    Estimated Inhibition Constant, Ki   =   38.64 nM (nanomolar)  [Temperature = 298.15 K]
DOCKED: USER    
DOCKED: USER    (1) Final Intermolecular Energy     =  -12.80 kcal/mol
DOCKED: USER        vdW + Hbond + desolv Energy     =  -12.80 kcal/mol
DOCKED: USER        Electrostatic Energy            =   +0.00 kcal/mol
DOCKED: USER    (2) Final Total Internal Energy     =   -1.44 kcal/mol
DOCKED: USER    (3) Torsional Free Energy           =   +2.68 kcal/mol
DOCKED: USER    (4) Unbound System's Energy  [=(2)] =   -1.44 kcal/mol
DOCKED: USER    
DOCKED: USER    
DOCKED: USER    NEWDPF move ligand.pdbqt
DOCKED: USER    NEWDPF about 0.359000 0.163000 0.443000
DOCKED: USER    NEWDPF tran0 26.723663 -16.904608 -1.309893
DOCKED: USER    NEWDPF quaternion0 0.240635 0.811145 0.164680 -0.506970
DOCKED: USER    NEWDPF axisangle0 0.279171 0.941043 0.191052 -119.075579
DOCKED: USER    NEWDPF quat0 0.279171 0.941043 0.191052 -119.075579
DOCKED: USER    NEWDPF dihe0 172.83 -15.08 -179.86 -144.65 -22.98 105.11 -35.66 -106.75 154.68 
DOCKED: USER  keepresnum = 1 
DOCKED: USER  
DOCKED: REMARK  Name = 
DOCKED: REMARK  9 active torsions:
DOCKED: REMARK  status: ('A' for Active; 'I' for Inactive)
DOCKED: REMARK    1  A    between atoms: O_1  and  N_2
DOCKED: REMARK    2  A    between atoms: C_3  and  C_4
DOCKED: REMARK    3  A    between atoms: C_4  and  C_5
DOCKED: REMARK    4  A    between atoms: C_5  and  C_6
DOCKED: REMARK    5  A    between atoms: C_6  and  C_7
DOCKED: REMARK    6  A    between atoms: C_7  and  C_8
DOCKED: REMARK    7  A    between atoms: C_8  and  C_9
DOCKED: REMARK    8  A    between atoms: C_9  and  C_10
DOCKED: REMARK    9  A    between atoms: N_11  and  O_12
DOCKED: REMARK                            x       y       z     vdW  Elec       q    Type
DOCKED: REMARK                         _______ _______ _______ _____ _____    ______ ____
DOCKED: USER                              x       y       z     vdW  Elec       q    Type
DOCKED: USER                           _______ _______ _______ _____ _____    ______ ____
DOCKED: ROOT
DOCKED: ATOM      1  C   UNL     1      26.056 -17.091  -0.658 -0.58 -0.00    +0.000 C 
DOCKED: ENDROOT
DOCKED: BRANCH   1   2
DOCKED: ATOM      2  C   UNL     1      25.641 -16.699  -2.082 -0.57 -0.00    +0.000 C 
DOCKED: BRANCH   2   3
DOCKED: ATOM      3  C   UNL     1      26.159 -15.303  -2.440 -0.45 -0.00    +0.000 C 
DOCKED: BRANCH   3   5
DOCKED: ATOM      4  N   UNL     1      27.495 -15.361  -4.600 -0.40 -0.00    +0.000 N 
DOCKED: ATOM      5  C   UNL     1      26.251 -15.143  -3.928 -0.55 -0.00    +0.000 C 
DOCKED: ATOM      6  O   UNL     1      25.238 -14.777  -4.581 -0.90 -0.00    +0.000 OA
DOCKED: ATOM      7  H   UNL     1      28.292 -15.612  -4.081 -0.01 -0.00    +0.000 HD
DOCKED: BRANCH   4   8
DOCKED: ATOM      8  O   UNL     1      27.584 -15.223  -5.945 -1.00 +0.00    +0.000 OA
DOCKED: ATOM      9  H   UNL     1      26.697 -15.085  -6.314 -0.03 +0.00    +0.000 HD
DOCKED: ENDBRANCH   4   8
DOCKED: ENDBRANCH   3   5
DOCKED: ENDBRANCH   2   3
DOCKED: ENDBRANCH   1   2
DOCKED: BRANCH   1  10
DOCKED: ATOM     10  C   UNL     1      24.970 -17.940   0.018 -0.62 -0.00    +0.000 C 
DOCKED: BRANCH  10  11
DOCKED: ATOM     11  C   UNL     1      23.607 -17.856  -0.693 -0.79 -0.00    +0.000 C 
DOCKED: BRANCH  11  12
DOCKED: ATOM     12  C   UNL     1      22.520 -18.749  -0.069 -0.73 -0.00    +0.000 C 
DOCKED: BRANCH  12  13
DOCKED: ATOM     13  C   UNL     1      21.252 -18.767  -0.875 -0.85 -0.00    +0.000 C 
DOCKED: ATOM     14  N   UNL     1      21.027 -19.788  -1.852 -0.55 -0.00    +0.000 N 
DOCKED: ATOM     15  O   UNL     1      20.392 -17.860  -0.708 -2.26 -0.00    +0.000 OA
DOCKED: ATOM     16  H   UNL     1      21.711 -20.481  -1.998 -0.46 -0.00    +0.000 HD
DOCKED: BRANCH  14  17
DOCKED: ATOM     17  O   UNL     1      19.883 -19.808  -2.576 -1.62 -0.00    +0.000 OA
DOCKED: ATOM     18  H   UNL     1      19.229 -19.224  -2.162 -0.43 -0.00    +0.000 HD
DOCKED: ENDBRANCH  14  17
DOCKED: ENDBRANCH  12  13
DOCKED: ENDBRANCH  11  12
DOCKED: ENDBRANCH  10  11
DOCKED: ENDBRANCH   1  10
DOCKED: TORSDOF 9
DOCKED: TER
DOCKED: ENDMDL
________________________________________________________________________________


	BEGINNING GENETIC ALGORITHM DOCKING 27 of 100
Run: 27 Seed: 1945771262 1251683702 [ Run 27 of 100 GA/GALS ]
Beginning LAMARCKIAN GENETIC ALGORITHM (LGA), with a maximum of 2500000 energy evaluations.

Final-Value: -13.522


	FINAL GENETIC ALGORITHM DOCKED STATE
	_______________________________________________


Detailed state:  trans 26.412 -17.164 -1.586 quatxyzw 0.681544 0.523505 0.412252 -0.302470 center 0.359 0.163 0.443 ntor 9 178.3001 9.1936 25.0144 -180.0000 64.6663 -31.9931 129.7910 -140.1945 51.3976
State:	 26.412 -17.164  -1.586   0.715  0.549  0.433 -144.788    178.30    9.19   25.01 -180.00   64.67  -31.99  129.79 -140.19   51.40

DOCKED: MODEL       27
DOCKED: USER    Run = 27
DOCKED: USER    DPF = ligand_dock.biased.dpf
DOCKED: USER  
DOCKED: USER    Estimated Free Energy of Binding    =   -9.19 kcal/mol  [=(1)+(2)+(3)-(4)]
DOCKED: USER    Estimated Inhibition Constant, Ki   =  183.46 nM (nanomolar)  [Temperature = 298.15 K]
DOCKED: USER    
DOCKED: USER    (1) Final Intermolecular Energy     =  -11.87 kcal/mol
DOCKED: USER        vdW + Hbond + desolv Energy     =  -11.87 kcal/mol
DOCKED: USER        Electrostatic Energy            =   +0.00 kcal/mol
DOCKED: USER    (2) Final Total Internal Energy     =   -1.65 kcal/mol
DOCKED: USER    (3) Torsional Free Energy           =   +2.68 kcal/mol
DOCKED: USER    (4) Unbound System's Energy  [=(2)] =   -1.65 kcal/mol
DOCKED: USER    
DOCKED: USER    
DOCKED: USER    NEWDPF move ligand.pdbqt
DOCKED: USER    NEWDPF about 0.359000 0.163000 0.443000
DOCKED: USER    NEWDPF tran0 26.411563 -17.164110 -1.585789
DOCKED: USER    NEWDPF quaternion0 0.681544 0.523505 0.412252 -0.302470
DOCKED: USER    NEWDPF axisangle0 0.715038 0.549232 0.432511 -144.787966
DOCKED: USER    NEWDPF quat0 0.715038 0.549232 0.432511 -144.787966
DOCKED: USER    NEWDPF dihe0 178.30 9.19 25.01 -180.00 64.67 -31.99 129.79 -140.19 51.40 
DOCKED: USER  keepresnum = 1 
DOCKED: USER  
DOCKED: REMARK  Name = 
DOCKED: REMARK  9 active torsions:
DOCKED: REMARK  status: ('A' for Active; 'I' for Inactive)
DOCKED: REMARK    1  A    between atoms: O_1  and  N_2
DOCKED: REMARK    2  A    between atoms: C_3  and  C_4
DOCKED: REMARK    3  A    between atoms: C_4  and  C_5
DOCKED: REMARK    4  A    between atoms: C_5  and  C_6
DOCKED: REMARK    5  A    between atoms: C_6  and  C_7
DOCKED: REMARK    6  A    between atoms: C_7  and  C_8
DOCKED: REMARK    7  A    between atoms: C_8  and  C_9
DOCKED: REMARK    8  A    between atoms: C_9  and  C_10
DOCKED: REMARK    9  A    between atoms: N_11  and  O_12
DOCKED: REMARK                            x       y       z     vdW  Elec       q    Type
DOCKED: REMARK                         _______ _______ _______ _____ _____    ______ ____
DOCKED: USER                              x       y       z     vdW  Elec       q    Type
DOCKED: USER                           _______ _______ _______ _____ _____    ______ ____
DOCKED: ROOT
DOCKED: ATOM      1  C   UNL     1      25.607 -17.517  -1.221 -0.62 -0.00    +0.000 C 
DOCKED: ENDROOT
DOCKED: BRANCH   1   2
DOCKED: ATOM      2  C   UNL     1      25.757 -16.002  -1.408 -0.52 -0.00    +0.000 C 
DOCKED: BRANCH   2   3
DOCKED: ATOM      3  C   UNL     1      24.943 -15.514  -2.610 -0.32 -0.00    +0.000 C 
DOCKED: BRANCH   3   5
DOCKED: ATOM      4  N   UNL     1      26.040 -15.710  -4.892 -0.57 -0.00    +0.000 N 
DOCKED: ATOM      5  C   UNL     1      25.851 -14.981  -3.677 -0.56 -0.00    +0.000 C 
DOCKED: ATOM      6  O   UNL     1      26.480 -13.906  -3.483 -0.35 -0.00    +0.000 OA
DOCKED: ATOM      7  H   UNL     1      25.574 -16.567  -5.024 -0.08 -0.00    +0.000 HD
DOCKED: BRANCH   4   8
DOCKED: ATOM      8  O   UNL     1      26.855 -15.233  -5.862 -1.01 +0.00    +0.000 OA
DOCKED: ATOM      9  H   UNL     1      27.213 -14.373  -5.588 -0.03 -0.00    +0.000 HD
DOCKED: ENDBRANCH   4   8
DOCKED: ENDBRANCH   3   5
DOCKED: ENDBRANCH   2   3
DOCKED: ENDBRANCH   1   2
DOCKED: BRANCH   1  10
DOCKED: ATOM     10  C   UNL     1      24.129 -17.934  -1.253 -0.76 -0.00    +0.000 C 
DOCKED: BRANCH  10  11
DOCKED: ATOM     11  C   UNL     1      23.664 -18.613   0.048 -0.62 -0.00    +0.000 C 
DOCKED: BRANCH  11  12
DOCKED: ATOM     12  C   UNL     1      22.218 -18.271   0.450 -0.56 -0.00    +0.000 C 
DOCKED: BRANCH  12  13
DOCKED: ATOM     13  C   UNL     1      21.247 -18.445  -0.683 -0.81 -0.00    +0.000 C 
DOCKED: ATOM     14  N   UNL     1      21.104 -19.713  -1.328 -0.72 -0.00    +0.000 N 
DOCKED: ATOM     15  O   UNL     1      20.572 -17.458  -1.084 -2.07 -0.00    +0.000 OA
DOCKED: ATOM     16  H   UNL     1      21.649 -20.477  -1.030 -0.16 -0.00    +0.000 HD
DOCKED: BRANCH  14  17
DOCKED: ATOM     17  O   UNL     1      20.225 -19.873  -2.347 -1.77 -0.00    +0.000 OA
DOCKED: ATOM     18  H   UNL     1      19.879 -19.006  -2.612 -0.34 -0.00    +0.000 HD
DOCKED: ENDBRANCH  14  17
DOCKED: ENDBRANCH  12  13
DOCKED: ENDBRANCH  11  12
DOCKED: ENDBRANCH  10  11
DOCKED: ENDBRANCH   1  10
DOCKED: TORSDOF 9
DOCKED: TER
DOCKED: ENDMDL
________________________________________________________________________________


	BEGINNING GENETIC ALGORITHM DOCKING 28 of 100
Run: 28 Seed: 1634976417 63568335 [ Run 28 of 100 GA/GALS ]
Beginning LAMARCKIAN GENETIC ALGORITHM (LGA), with a maximum of 2500000 energy evaluations.

Final-Value: -14.316


	FINAL GENETIC ALGORITHM DOCKED STATE
	_______________________________________________


Detailed state:  trans 26.246 -15.012 -0.942 quatxyzw -0.403063 0.232301 0.173820 -0.867965 center 0.359 0.163 0.443 ntor 9 179.4469 16.9604 -17.3435 -100.7791 -168.8206 95.0583 -91.4151 -99.4943 3.6261
State:	 26.246 -15.012  -0.942  -0.812  0.468  0.350 -59.554    179.45   16.96  -17.34 -100.78 -168.82   95.06  -91.42  -99.49    3.63

DOCKED: MODEL       28
DOCKED: USER    Run = 28
DOCKED: USER    DPF = ligand_dock.biased.dpf
DOCKED: USER  
DOCKED: USER    Estimated Free Energy of Binding    =  -10.06 kcal/mol  [=(1)+(2)+(3)-(4)]
DOCKED: USER    Estimated Inhibition Constant, Ki   =   41.96 nM (nanomolar)  [Temperature = 298.15 K]
DOCKED: USER    
DOCKED: USER    (1) Final Intermolecular Energy     =  -12.75 kcal/mol
DOCKED: USER        vdW + Hbond + desolv Energy     =  -12.75 kcal/mol
DOCKED: USER        Electrostatic Energy            =   +0.00 kcal/mol
DOCKED: USER    (2) Final Total Internal Energy     =   -1.57 kcal/mol
DOCKED: USER    (3) Torsional Free Energy           =   +2.68 kcal/mol
DOCKED: USER    (4) Unbound System's Energy  [=(2)] =   -1.57 kcal/mol
DOCKED: USER    
DOCKED: USER    
DOCKED: USER    NEWDPF move ligand.pdbqt
DOCKED: USER    NEWDPF about 0.359000 0.163000 0.443000
DOCKED: USER    NEWDPF tran0 26.246092 -15.011818 -0.941690
DOCKED: USER    NEWDPF quaternion0 -0.403063 0.232301 0.173820 -0.867965
DOCKED: USER    NEWDPF axisangle0 -0.811604 0.467759 0.350001 -59.554013
DOCKED: USER    NEWDPF quat0 -0.811604 0.467759 0.350001 -59.554013
DOCKED: USER    NEWDPF dihe0 179.45 16.96 -17.34 -100.78 -168.82 95.06 -91.42 -99.49 3.63 
DOCKED: USER  keepresnum = 1 
DOCKED: USER  
DOCKED: REMARK  Name = 
DOCKED: REMARK  9 active torsions:
DOCKED: REMARK  status: ('A' for Active; 'I' for Inactive)
DOCKED: REMARK    1  A    between atoms: O_1  and  N_2
DOCKED: REMARK    2  A    between atoms: C_3  and  C_4
DOCKED: REMARK    3  A    between atoms: C_4  and  C_5
DOCKED: REMARK    4  A    between atoms: C_5  and  C_6
DOCKED: REMARK    5  A    between atoms: C_6  and  C_7
DOCKED: REMARK    6  A    between atoms: C_7  and  C_8
DOCKED: REMARK    7  A    between atoms: C_8  and  C_9
DOCKED: REMARK    8  A    between atoms: C_9  and  C_10
DOCKED: REMARK    9  A    between atoms: N_11  and  O_12
DOCKED: REMARK                            x       y       z     vdW  Elec       q    Type
DOCKED: REMARK                         _______ _______ _______ _____ _____    ______ ____
DOCKED: USER                              x       y       z     vdW  Elec       q    Type
DOCKED: USER                           _______ _______ _______ _____ _____    ______ ____
DOCKED: ROOT
DOCKED: ATOM      1  C   UNL     1      25.715 -15.726  -1.278 -0.48 -0.00    +0.000 C 
DOCKED: ENDROOT
DOCKED: BRANCH   1   2
DOCKED: ATOM      2  C   UNL     1      27.212 -15.672  -1.607 -0.34 -0.00    +0.000 C 
DOCKED: BRANCH   2   3
DOCKED: ATOM      3  C   UNL     1      27.438 -15.501  -3.112 -0.34 -0.00    +0.000 C 
DOCKED: BRANCH   3   5
DOCKED: ATOM      4  N   UNL     1      25.501 -13.914  -3.538 -0.44 -0.00    +0.000 N 
DOCKED: ATOM      5  C   UNL     1      26.150 -15.161  -3.801 -0.55 -0.00    +0.000 C 
DOCKED: ATOM      6  O   UNL     1      25.620 -15.995  -4.583 -0.79 -0.00    +0.000 OA
DOCKED: ATOM      7  H   UNL     1      25.900 -13.280  -2.900 -0.01 -0.00    +0.000 HD
DOCKED: BRANCH   4   8
DOCKED: ATOM      8  O   UNL     1      24.340 -13.598  -4.160 -1.05 -0.00    +0.000 OA
DOCKED: ATOM      9  H   UNL     1      24.088 -14.320  -4.759 -0.51 -0.00    +0.000 HD
DOCKED: ENDBRANCH   4   8
DOCKED: ENDBRANCH   3   5
DOCKED: ENDBRANCH   2   3
DOCKED: ENDBRANCH   1   2
DOCKED: BRANCH   1  10
DOCKED: ATOM     10  C   UNL     1      25.191 -17.169  -1.326 -0.65 -0.00    +0.000 C 
DOCKED: BRANCH  10  11
DOCKED: ATOM     11  C   UNL     1      23.654 -17.255  -1.306 -0.67 -0.00    +0.000 C 
DOCKED: BRANCH  11  12
DOCKED: ATOM     12  C   UNL     1      23.109 -18.693  -1.241 -0.80 -0.00    +0.000 C 
DOCKED: BRANCH  12  13
DOCKED: ATOM     13  C   UNL     1      21.611 -18.740  -1.138 -0.76 -0.00    +0.000 C 
DOCKED: ATOM     14  N   UNL     1      20.862 -19.690  -1.901 -0.67 -0.00    +0.000 N 
DOCKED: ATOM     15  O   UNL     1      21.009 -17.919  -0.396 -1.97 -0.00    +0.000 OA
DOCKED: ATOM     16  H   UNL     1      21.332 -20.315  -2.500 -0.55 -0.00    +0.000 HD
DOCKED: BRANCH  14  17
DOCKED: ATOM     17  O   UNL     1      19.511 -19.737  -1.808 -1.67 -0.00    +0.000 OA
DOCKED: ATOM     18  H   UNL     1      19.187 -18.915  -1.407 -0.50 -0.00    +0.000 HD
DOCKED: ENDBRANCH  14  17
DOCKED: ENDBRANCH  12  13
DOCKED: ENDBRANCH  11  12
DOCKED: ENDBRANCH  10  11
DOCKED: ENDBRANCH   1  10
DOCKED: TORSDOF 9
DOCKED: TER
DOCKED: ENDMDL
________________________________________________________________________________


	BEGINNING GENETIC ALGORITHM DOCKING 29 of 100
Run: 29 Seed: 2037298646 193416346 [ Run 29 of 100 GA/GALS ]
Beginning LAMARCKIAN GENETIC ALGORITHM (LGA), with a maximum of 2500000 energy evaluations.

Final-Value: -14.050


	FINAL GENETIC ALGORITHM DOCKED STATE
	_______________________________________________


Detailed state:  trans 23.097 -16.973 -1.122 quatxyzw -0.104185 0.761167 0.128490 0.627105 center 0.359 0.163 0.443 ntor 9 178.5425 158.7291 91.4741 -77.8819 90.4360 -162.9321 98.4826 -163.3807 22.0719
State:	 23.097 -16.973  -1.122  -0.134  0.977  0.165 102.326    178.54  158.73   91.47  -77.88   90.44 -162.93   98.48 -163.38   22.07

DOCKED: MODEL       29
DOCKED: USER    Run = 29
DOCKED: USER    DPF = ligand_dock.biased.dpf
DOCKED: USER  
DOCKED: USER    Estimated Free Energy of Binding    =  -10.27 kcal/mol  [=(1)+(2)+(3)-(4)]
DOCKED: USER    Estimated Inhibition Constant, Ki   =   29.53 nM (nanomolar)  [Temperature = 298.15 K]
DOCKED: USER    
DOCKED: USER    (1) Final Intermolecular Energy     =  -12.96 kcal/mol
DOCKED: USER        vdW + Hbond + desolv Energy     =  -12.96 kcal/mol
DOCKED: USER        Electrostatic Energy            =   +0.00 kcal/mol
DOCKED: USER    (2) Final Total Internal Energy     =   -1.09 kcal/mol
DOCKED: USER    (3) Torsional Free Energy           =   +2.68 kcal/mol
DOCKED: USER    (4) Unbound System's Energy  [=(2)] =   -1.09 kcal/mol
DOCKED: USER    
DOCKED: USER    
DOCKED: USER    NEWDPF move ligand.pdbqt
DOCKED: USER    NEWDPF about 0.359000 0.163000 0.443000
DOCKED: USER    NEWDPF tran0 23.096933 -16.973418 -1.121743
DOCKED: USER    NEWDPF quaternion0 -0.104185 0.761167 0.128490 0.627105
DOCKED: USER    NEWDPF axisangle0 -0.133753 0.977190 0.164955 102.326331
DOCKED: USER    NEWDPF quat0 -0.133753 0.977190 0.164955 102.326331
DOCKED: USER    NEWDPF dihe0 178.54 158.73 91.47 -77.88 90.44 -162.93 98.48 -163.38 22.07 
DOCKED: USER  keepresnum = 1 
DOCKED: USER  
DOCKED: REMARK  Name = 
DOCKED: REMARK  9 active torsions:
DOCKED: REMARK  status: ('A' for Active; 'I' for Inactive)
DOCKED: REMARK    1  A    between atoms: O_1  and  N_2
DOCKED: REMARK    2  A    between atoms: C_3  and  C_4
DOCKED: REMARK    3  A    between atoms: C_4  and  C_5
DOCKED: REMARK    4  A    between atoms: C_5  and  C_6
DOCKED: REMARK    5  A    between atoms: C_6  and  C_7
DOCKED: REMARK    6  A    between atoms: C_7  and  C_8
DOCKED: REMARK    7  A    between atoms: C_8  and  C_9
DOCKED: REMARK    8  A    between atoms: C_9  and  C_10
DOCKED: REMARK    9  A    between atoms: N_11  and  O_12
DOCKED: REMARK                            x       y       z     vdW  Elec       q    Type
DOCKED: REMARK                         _______ _______ _______ _____ _____    ______ ____
DOCKED: USER                              x       y       z     vdW  Elec       q    Type
DOCKED: USER                           _______ _______ _______ _____ _____    ______ ____
DOCKED: ROOT
DOCKED: ATOM      1  C   UNL     1      24.034 -16.895  -1.268 -0.64 -0.00    +0.000 C 
DOCKED: ENDROOT
DOCKED: BRANCH   1   2
DOCKED: ATOM      2  C   UNL     1      23.513 -17.804  -0.148 -0.68 -0.00    +0.000 C 
DOCKED: BRANCH   2   3
DOCKED: ATOM      3  C   UNL     1      22.898 -19.084  -0.721 -0.81 -0.00    +0.000 C 
DOCKED: BRANCH   3   5
DOCKED: ATOM      4  N   UNL     1      20.681 -19.916  -1.640 -0.69 -0.00    +0.000 N 
DOCKED: ATOM      5  C   UNL     1      21.439 -18.885  -1.001 -0.84 -0.00    +0.000 C 
DOCKED: ATOM      6  O   UNL     1      20.889 -17.790  -0.707 -2.20 -0.00    +0.000 OA
DOCKED: ATOM      7  H   UNL     1      21.122 -20.756  -1.900 -0.26 -0.00    +0.000 HD
DOCKED: BRANCH   4   8
DOCKED: ATOM      8  O   UNL     1      19.361 -19.745  -1.892 -1.29 -0.00    +0.000 OA
DOCKED: ATOM      9  H   UNL     1      19.078 -18.879  -1.556 -0.56 -0.00    +0.000 HD
DOCKED: ENDBRANCH   4   8
DOCKED: ENDBRANCH   3   5
DOCKED: ENDBRANCH   2   3
DOCKED: ENDBRANCH   1   2
DOCKED: BRANCH   1  10
DOCKED: ATOM     10  C   UNL     1      25.409 -17.363  -1.764 -0.59 -0.00    +0.000 C 
DOCKED: BRANCH  10  11
DOCKED: ATOM     11  C   UNL     1      26.296 -16.209  -2.266 -0.48 -0.00    +0.000 C 
DOCKED: BRANCH  11  12
DOCKED: ATOM     12  C   UNL     1      27.628 -16.068  -1.508 -0.34 -0.00    +0.000 C 
DOCKED: BRANCH  12  13
DOCKED: ATOM     13  C   UNL     1      27.481 -15.328  -0.209 -0.32 -0.00    +0.000 C 
DOCKED: ATOM     14  N   UNL     1      28.476 -15.449   0.812 -0.10 -0.00    +0.000 N 
DOCKED: ATOM     15  O   UNL     1      26.460 -14.616  -0.008 -0.37 -0.00    +0.000 OA
DOCKED: ATOM     16  H   UNL     1      29.261 -16.025   0.663 -0.56 -0.00    +0.000 HD
DOCKED: BRANCH  14  17
DOCKED: ATOM     17  O   UNL     1      28.347 -14.779   1.982 -0.27 -0.00    +0.000 OA
DOCKED: ATOM     18  H   UNL     1      28.888 -15.210   2.662 -1.97 -0.00    +0.000 HD
DOCKED: ENDBRANCH  14  17
DOCKED: ENDBRANCH  12  13
DOCKED: ENDBRANCH  11  12
DOCKED: ENDBRANCH  10  11
DOCKED: ENDBRANCH   1  10
DOCKED: TORSDOF 9
DOCKED: TER
DOCKED: ENDMDL
________________________________________________________________________________


	BEGINNING GENETIC ALGORITHM DOCKING 30 of 100
Run: 30 Seed: 971890963 1393694901 [ Run 30 of 100 GA/GALS ]
Beginning LAMARCKIAN GENETIC ALGORITHM (LGA), with a maximum of 2500000 energy evaluations.

Final-Value: -12.791


	FINAL GENETIC ALGORITHM DOCKED STATE
	_______________________________________________


Detailed state:  trans 17.944 -20.216 1.158 quatxyzw 0.896054 -0.017638 -0.017093 0.443266 center 0.359 0.163 0.443 ntor 9 178.5674 29.4092 28.3275 102.2263 -83.9357 57.4296 -36.4536 176.8835 -99.0545
State:	 17.944 -20.216   1.158   1.000 -0.020 -0.019 127.375    178.57   29.41   28.33  102.23  -83.94   57.43  -36.45  176.88  -99.05

DOCKED: MODEL       30
DOCKED: USER    Run = 30
DOCKED: USER    DPF = ligand_dock.biased.dpf
DOCKED: USER  
DOCKED: USER    Estimated Free Energy of Binding    =   -8.76 kcal/mol  [=(1)+(2)+(3)-(4)]
DOCKED: USER    Estimated Inhibition Constant, Ki   =  382.33 nM (nanomolar)  [Temperature = 298.15 K]
DOCKED: USER    
DOCKED: USER    (1) Final Intermolecular Energy     =  -11.44 kcal/mol
DOCKED: USER        vdW + Hbond + desolv Energy     =  -11.44 kcal/mol
DOCKED: USER        Electrostatic Energy            =   +0.00 kcal/mol
DOCKED: USER    (2) Final Total Internal Energy     =   -1.35 kcal/mol
DOCKED: USER    (3) Torsional Free Energy           =   +2.68 kcal/mol
DOCKED: USER    (4) Unbound System's Energy  [=(2)] =   -1.35 kcal/mol
DOCKED: USER    
DOCKED: USER    
DOCKED: USER    NEWDPF move ligand.pdbqt
DOCKED: USER    NEWDPF about 0.359000 0.163000 0.443000
DOCKED: USER    NEWDPF tran0 17.943636 -20.215826 1.158345
DOCKED: USER    NEWDPF quaternion0 0.896054 -0.017638 -0.017093 0.443266
DOCKED: USER    NEWDPF axisangle0 0.999625 -0.019677 -0.019069 127.375099
DOCKED: USER    NEWDPF quat0 0.999625 -0.019677 -0.019069 127.375099
DOCKED: USER    NEWDPF dihe0 178.57 29.41 28.33 102.23 -83.94 57.43 -36.45 176.88 -99.05 
DOCKED: USER  keepresnum = 1 
DOCKED: USER  
DOCKED: REMARK  Name = 
DOCKED: REMARK  9 active torsions:
DOCKED: REMARK  status: ('A' for Active; 'I' for Inactive)
DOCKED: REMARK    1  A    between atoms: O_1  and  N_2
DOCKED: REMARK    2  A    between atoms: C_3  and  C_4
DOCKED: REMARK    3  A    between atoms: C_4  and  C_5
DOCKED: REMARK    4  A    between atoms: C_5  and  C_6
DOCKED: REMARK    5  A    between atoms: C_6  and  C_7
DOCKED: REMARK    6  A    between atoms: C_7  and  C_8
DOCKED: REMARK    7  A    between atoms: C_8  and  C_9
DOCKED: REMARK    8  A    between atoms: C_9  and  C_10
DOCKED: REMARK    9  A    between atoms: N_11  and  O_12
DOCKED: REMARK                            x       y       z     vdW  Elec       q    Type
DOCKED: REMARK                         _______ _______ _______ _____ _____    ______ ____
DOCKED: USER                              x       y       z     vdW  Elec       q    Type
DOCKED: USER                           _______ _______ _______ _____ _____    ______ ____
DOCKED: ROOT
DOCKED: ATOM      1  C   UNL     1      17.615 -20.934   1.690 -0.67 -0.00    +0.000 C 
DOCKED: ENDROOT
DOCKED: BRANCH   1   2
DOCKED: ATOM      2  C   UNL     1      19.063 -20.458   1.865 -0.62 -0.00    +0.000 C 
DOCKED: BRANCH   2   3
DOCKED: ATOM      3  C   UNL     1      19.859 -20.632   0.568 -0.69 -0.00    +0.000 C 
DOCKED: BRANCH   3   5
DOCKED: ATOM      4  N   UNL     1      21.106 -18.625  -0.363 -0.75 -0.00    +0.000 N 
DOCKED: ATOM      5  C   UNL     1      19.883 -19.351  -0.209 -0.85 -0.00    +0.000 C 
DOCKED: ATOM      6  O   UNL     1      18.814 -18.893  -0.693 -0.80 -0.00    +0.000 OA
DOCKED: ATOM      7  H   UNL     1      21.932 -18.968   0.047 -0.09 -0.00    +0.000 HD
DOCKED: BRANCH   4   8
DOCKED: ATOM      8  O   UNL     1      21.136 -17.468  -1.067 -1.82 -0.00    +0.000 OA
DOCKED: ATOM      9  H   UNL     1      20.251 -17.283  -1.421 -0.54 -0.00    +0.000 HD
DOCKED: ENDBRANCH   4   8
DOCKED: ENDBRANCH   3   5
DOCKED: ENDBRANCH   2   3
DOCKED: ENDBRANCH   1   2
DOCKED: BRANCH   1  10
DOCKED: ATOM     10  C   UNL     1      17.089 -21.586   2.976 -0.29 -0.00    +0.000 C 
DOCKED: BRANCH  10  11
DOCKED: ATOM     11  C   UNL     1      16.420 -20.582   3.933 -0.54 -0.00    +0.000 C 
DOCKED: BRANCH  11  12
DOCKED: ATOM     12  C   UNL     1      14.882 -20.600   3.883 -0.30 -0.00    +0.000 C 
DOCKED: BRANCH  12  13
DOCKED: ATOM     13  C   UNL     1      14.257 -20.489   5.244 -0.80 -0.00    +0.000 C 
DOCKED: ATOM     14  N   UNL     1      15.017 -20.792   6.418 -0.66 -0.00    +0.000 N 
DOCKED: ATOM     15  O   UNL     1      13.047 -20.152   5.351 -0.93 -0.00    +0.000 OA
DOCKED: ATOM     16  H   UNL     1      15.955 -21.078   6.332 -0.02 -0.00    +0.000 HD
DOCKED: BRANCH  14  17
DOCKED: ATOM     17  O   UNL     1      14.457 -20.688   7.647 -0.62 -0.00    +0.000 OA
DOCKED: ATOM     18  H   UNL     1      13.504 -20.860   7.582 -0.43 -0.00    +0.000 HD
DOCKED: ENDBRANCH  14  17
DOCKED: ENDBRANCH  12  13
DOCKED: ENDBRANCH  11  12
DOCKED: ENDBRANCH  10  11
DOCKED: ENDBRANCH   1  10
DOCKED: TORSDOF 9
DOCKED: TER
DOCKED: ENDMDL
________________________________________________________________________________


	BEGINNING GENETIC ALGORITHM DOCKING 31 of 100
Run: 31 Seed: 1118563122 517953606 [ Run 31 of 100 GA/GALS ]
Beginning LAMARCKIAN GENETIC ALGORITHM (LGA), with a maximum of 2500000 energy evaluations.

Final-Value: -13.843


	FINAL GENETIC ALGORITHM DOCKED STATE
	_______________________________________________


Detailed state:  trans 24.482 -18.891 -0.361 quatxyzw 0.126211 -0.411929 0.885791 0.172511 center 0.359 0.163 0.443 ntor 9 -160.8468 6.4821 144.7985 -21.1909 31.5269 -46.2354 -85.1778 180.0000 -63.1737
State:	 24.482 -18.891  -0.361   0.128 -0.418  0.899 160.132   -160.85    6.48  144.80  -21.19   31.53  -46.24  -85.18  180.00  -63.17

DOCKED: MODEL       31
DOCKED: USER    Run = 31
DOCKED: USER    DPF = ligand_dock.biased.dpf
DOCKED: USER  
DOCKED: USER    Estimated Free Energy of Binding    =   -9.68 kcal/mol  [=(1)+(2)+(3)-(4)]
DOCKED: USER    Estimated Inhibition Constant, Ki   =   79.74 nM (nanomolar)  [Temperature = 298.15 K]
DOCKED: USER    
DOCKED: USER    (1) Final Intermolecular Energy     =  -12.37 kcal/mol
DOCKED: USER        vdW + Hbond + desolv Energy     =  -12.37 kcal/mol
DOCKED: USER        Electrostatic Energy            =   +0.00 kcal/mol
DOCKED: USER    (2) Final Total Internal Energy     =   -1.47 kcal/mol
DOCKED: USER    (3) Torsional Free Energy           =   +2.68 kcal/mol
DOCKED: USER    (4) Unbound System's Energy  [=(2)] =   -1.47 kcal/mol
DOCKED: USER    
DOCKED: USER    
DOCKED: USER    NEWDPF move ligand.pdbqt
DOCKED: USER    NEWDPF about 0.359000 0.163000 0.443000
DOCKED: USER    NEWDPF tran0 24.481832 -18.890741 -0.360566
DOCKED: USER    NEWDPF quaternion0 0.126211 -0.411929 0.885791 0.172511
DOCKED: USER    NEWDPF axisangle0 0.128132 -0.418199 0.899273 160.132346
DOCKED: USER    NEWDPF quat0 0.128132 -0.418199 0.899273 160.132346
DOCKED: USER    NEWDPF dihe0 -160.85 6.48 144.80 -21.19 31.53 -46.24 -85.18 180.00 -63.17 
DOCKED: USER  keepresnum = 1 
DOCKED: USER  
DOCKED: REMARK  Name = 
DOCKED: REMARK  9 active torsions:
DOCKED: REMARK  status: ('A' for Active; 'I' for Inactive)
DOCKED: REMARK    1  A    between atoms: O_1  and  N_2
DOCKED: REMARK    2  A    between atoms: C_3  and  C_4
DOCKED: REMARK    3  A    between atoms: C_4  and  C_5
DOCKED: REMARK    4  A    between atoms: C_5  and  C_6
DOCKED: REMARK    5  A    between atoms: C_6  and  C_7
DOCKED: REMARK    6  A    between atoms: C_7  and  C_8
DOCKED: REMARK    7  A    between atoms: C_8  and  C_9
DOCKED: REMARK    8  A    between atoms: C_9  and  C_10
DOCKED: REMARK    9  A    between atoms: N_11  and  O_12
DOCKED: REMARK                            x       y       z     vdW  Elec       q    Type
DOCKED: REMARK                         _______ _______ _______ _____ _____    ______ ____
DOCKED: USER                              x       y       z     vdW  Elec       q    Type
DOCKED: USER                           _______ _______ _______ _____ _____    ______ ____
DOCKED: ROOT
DOCKED: ATOM      1  C   UNL     1      24.473 -18.159  -0.969 -0.76 -0.00    +0.000 C 
DOCKED: ENDROOT
DOCKED: BRANCH   1   2
DOCKED: ATOM      2  C   UNL     1      23.165 -18.619  -0.313 -0.81 -0.00    +0.000 C 
DOCKED: BRANCH   2   3
DOCKED: ATOM      3  C   UNL     1      22.240 -19.283  -1.337 -0.67 -0.00    +0.000 C 
DOCKED: BRANCH   3   5
DOCKED: ATOM      4  N   UNL     1      19.872 -20.123  -0.965 -0.71 -0.00    +0.000 N 
DOCKED: ATOM      5  C   UNL     1      20.804 -19.039  -0.983 -0.88 -0.00    +0.000 C 
DOCKED: ATOM      6  O   UNL     1      20.410 -17.867  -0.738 -2.26 -0.00    +0.000 OA
DOCKED: ATOM      7  H   UNL     1      20.176 -21.031  -1.192 -0.52 -0.00    +0.000 HD
DOCKED: BRANCH   4   8
DOCKED: ATOM      8  O   UNL     1      18.574 -19.911  -0.642 -0.82 -0.00    +0.000 OA
DOCKED: ATOM      9  H   UNL     1      18.366 -18.968  -0.743 -0.60 -0.00    +0.000 HD
DOCKED: ENDBRANCH   4   8
DOCKED: ENDBRANCH   3   5
DOCKED: ENDBRANCH   2   3
DOCKED: ENDBRANCH   1   2
DOCKED: BRANCH   1  10
DOCKED: ATOM     10  C   UNL     1      24.401 -16.677  -1.363 -0.62 -0.00    +0.000 C 
DOCKED: BRANCH  10  11
DOCKED: ATOM     11  C   UNL     1      25.556 -15.841  -0.782 -0.44 -0.00    +0.000 C 
DOCKED: BRANCH  11  12
DOCKED: ATOM     12  C   UNL     1      26.645 -15.480  -1.808 -0.39 -0.00    +0.000 C 
DOCKED: BRANCH  12  13
DOCKED: ATOM     13  C   UNL     1      26.087 -15.227  -3.180 -0.51 -0.00    +0.000 C 
DOCKED: ATOM     14  N   UNL     1      26.805 -15.648  -4.344 -0.44 -0.00    +0.000 N 
DOCKED: ATOM     15  O   UNL     1      24.991 -14.617  -3.306 -0.75 -0.00    +0.000 OA
DOCKED: ATOM     16  H   UNL     1      27.672 -16.103  -4.244 -0.02 -0.00    +0.000 HD
DOCKED: BRANCH  14  17
DOCKED: ATOM     17  O   UNL     1      26.302 -15.425  -5.581 -1.14 +0.00    +0.000 OA
DOCKED: ATOM     18  H   UNL     1      25.501 -14.882  -5.510 -0.03 -0.00    +0.000 HD
DOCKED: ENDBRANCH  14  17
DOCKED: ENDBRANCH  12  13
DOCKED: ENDBRANCH  11  12
DOCKED: ENDBRANCH  10  11
DOCKED: ENDBRANCH   1  10
DOCKED: TORSDOF 9
DOCKED: TER
DOCKED: ENDMDL
________________________________________________________________________________


	BEGINNING GENETIC ALGORITHM DOCKING 32 of 100
Run: 32 Seed: 98357959 244105087 [ Run 32 of 100 GA/GALS ]
Beginning LAMARCKIAN GENETIC ALGORITHM (LGA), with a maximum of 2500000 energy evaluations.

Final-Value: -13.131


	FINAL GENETIC ALGORITHM DOCKED STATE
	_______________________________________________


Detailed state:  trans 25.641 -18.169 -1.210 quatxyzw -0.109155 -0.531481 0.722749 0.428073 center 0.359 0.163 0.443 ntor 9 -160.7055 1.9637 20.6783 31.6017 -67.7459 -95.3766 97.3759 177.7875 4.0305
State:	 25.641 -18.169  -1.210  -0.121 -0.588  0.800 129.309   -160.71    1.96   20.68   31.60  -67.75  -95.38   97.38  177.79    4.03

DOCKED: MODEL       32
DOCKED: USER    Run = 32
DOCKED: USER    DPF = ligand_dock.biased.dpf
DOCKED: USER  
DOCKED: USER    Estimated Free Energy of Binding    =   -8.65 kcal/mol  [=(1)+(2)+(3)-(4)]
DOCKED: USER    Estimated Inhibition Constant, Ki   =  456.20 nM (nanomolar)  [Temperature = 298.15 K]
DOCKED: USER    
DOCKED: USER    (1) Final Intermolecular Energy     =  -11.34 kcal/mol
DOCKED: USER        vdW + Hbond + desolv Energy     =  -11.34 kcal/mol
DOCKED: USER        Electrostatic Energy            =   +0.00 kcal/mol
DOCKED: USER    (2) Final Total Internal Energy     =   -1.80 kcal/mol
DOCKED: USER    (3) Torsional Free Energy           =   +2.68 kcal/mol
DOCKED: USER    (4) Unbound System's Energy  [=(2)] =   -1.80 kcal/mol
DOCKED: USER    
DOCKED: USER    
DOCKED: USER    NEWDPF move ligand.pdbqt
DOCKED: USER    NEWDPF about 0.359000 0.163000 0.443000
DOCKED: USER    NEWDPF tran0 25.641215 -18.169314 -1.209755
DOCKED: USER    NEWDPF quaternion0 -0.109155 -0.531481 0.722749 0.428073
DOCKED: USER    NEWDPF axisangle0 -0.120780 -0.588088 0.799728 129.309322
DOCKED: USER    NEWDPF quat0 -0.120780 -0.588088 0.799728 129.309322
DOCKED: USER    NEWDPF dihe0 -160.71 1.96 20.68 31.60 -67.75 -95.38 97.38 177.79 4.03 
DOCKED: USER  keepresnum = 1 
DOCKED: USER  
DOCKED: REMARK  Name = 
DOCKED: REMARK  9 active torsions:
DOCKED: REMARK  status: ('A' for Active; 'I' for Inactive)
DOCKED: REMARK    1  A    between atoms: O_1  and  N_2
DOCKED: REMARK    2  A    between atoms: C_3  and  C_4
DOCKED: REMARK    3  A    between atoms: C_4  and  C_5
DOCKED: REMARK    4  A    between atoms: C_5  and  C_6
DOCKED: REMARK    5  A    between atoms: C_6  and  C_7
DOCKED: REMARK    6  A    between atoms: C_7  and  C_8
DOCKED: REMARK    7  A    between atoms: C_8  and  C_9
DOCKED: REMARK    8  A    between atoms: C_9  and  C_10
DOCKED: REMARK    9  A    between atoms: N_11  and  O_12
DOCKED: REMARK                            x       y       z     vdW  Elec       q    Type
DOCKED: REMARK                         _______ _______ _______ _____ _____    ______ ____
DOCKED: USER                              x       y       z     vdW  Elec       q    Type
DOCKED: USER                           _______ _______ _______ _____ _____    ______ ____
DOCKED: ROOT
DOCKED: ATOM      1  C   UNL     1      25.606 -17.235  -1.386 -0.61 -0.00    +0.000 C 
DOCKED: ENDROOT
DOCKED: BRANCH   1   2
DOCKED: ATOM      2  C   UNL     1      24.445 -18.135  -1.825 -0.54 -0.00    +0.000 C 
DOCKED: BRANCH   2   3
DOCKED: ATOM      3  C   UNL     1      23.621 -18.597  -0.619 -0.82 -0.00    +0.000 C 
DOCKED: BRANCH   3   5
DOCKED: ATOM      4  N   UNL     1      21.124 -18.774  -1.045 -0.79 -0.00    +0.000 N 
DOCKED: ATOM      5  C   UNL     1      22.252 -17.988  -0.654 -0.83 -0.00    +0.000 C 
DOCKED: ATOM      6  O   UNL     1      22.103 -16.767  -0.377 -0.94 -0.00    +0.000 OA
DOCKED: ATOM      7  H   UNL     1      21.250 -19.718  -1.296 -0.10 -0.00    +0.000 HD
DOCKED: BRANCH   4   8
DOCKED: ATOM      8  O   UNL     1      19.883 -18.231  -1.075 -1.80 -0.00    +0.000 OA
DOCKED: ATOM      9  H   UNL     1      19.955 -17.264  -1.107 -0.56 -0.00    +0.000 HD
DOCKED: ENDBRANCH   4   8
DOCKED: ENDBRANCH   3   5
DOCKED: ENDBRANCH   2   3
DOCKED: ENDBRANCH   1   2
DOCKED: BRANCH   1  10
DOCKED: ATOM     10  C   UNL     1      25.131 -15.792  -1.159 -0.42 -0.00    +0.000 C 
DOCKED: BRANCH  10  11
DOCKED: ATOM     11  C   UNL     1      26.290 -14.788  -1.025 -0.36 -0.00    +0.000 C 
DOCKED: BRANCH  11  12
DOCKED: ATOM     12  C   UNL     1      26.549 -13.958  -2.295 -0.27 -0.00    +0.000 C 
DOCKED: BRANCH  12  13
DOCKED: ATOM     13  C   UNL     1      25.852 -14.516  -3.503 -0.51 -0.00    +0.000 C 
DOCKED: ATOM     14  N   UNL     1      26.503 -15.479  -4.337 -0.51 -0.00    +0.000 N 
DOCKED: ATOM     15  O   UNL     1      24.695 -14.112  -3.799 -1.04 -0.00    +0.000 OA
DOCKED: ATOM     16  H   UNL     1      27.416 -15.775  -4.118 -0.02 -0.00    +0.000 HD
DOCKED: BRANCH  14  17
DOCKED: ATOM     17  O   UNL     1      25.874 -15.986  -5.424 -1.13 +0.00    +0.000 OA
DOCKED: ATOM     18  H   UNL     1      25.002 -15.571  -5.515 -0.08 -0.00    +0.000 HD
DOCKED: ENDBRANCH  14  17
DOCKED: ENDBRANCH  12  13
DOCKED: ENDBRANCH  11  12
DOCKED: ENDBRANCH  10  11
DOCKED: ENDBRANCH   1  10
DOCKED: TORSDOF 9
DOCKED: TER
DOCKED: ENDMDL
________________________________________________________________________________


	BEGINNING GENETIC ALGORITHM DOCKING 33 of 100
Run: 33 Seed: 411590830 58483664 [ Run 33 of 100 GA/GALS ]
Beginning LAMARCKIAN GENETIC ALGORITHM (LGA), with a maximum of 2500000 energy evaluations.

Final-Value: -14.331


	FINAL GENETIC ALGORITHM DOCKED STATE
	_______________________________________________


Detailed state:  trans 26.927 -18.083 -1.504 quatxyzw 0.769010 0.347292 0.245855 -0.477040 center 0.359 0.163 0.443 ntor 9 178.6192 -4.1788 -122.6819 161.2970 78.7634 42.1914 -172.3729 -133.1469 -16.4846
State:	 26.927 -18.083  -1.504   0.875  0.395  0.280 -123.015    178.62   -4.18 -122.68  161.30   78.76   42.19 -172.37 -133.15  -16.48

DOCKED: MODEL       33
DOCKED: USER    Run = 33
DOCKED: USER    DPF = ligand_dock.biased.dpf
DOCKED: USER  
DOCKED: USER    Estimated Free Energy of Binding    =  -10.02 kcal/mol  [=(1)+(2)+(3)-(4)]
DOCKED: USER    Estimated Inhibition Constant, Ki   =   45.00 nM (nanomolar)  [Temperature = 298.15 K]
DOCKED: USER    
DOCKED: USER    (1) Final Intermolecular Energy     =  -12.71 kcal/mol
DOCKED: USER        vdW + Hbond + desolv Energy     =  -12.71 kcal/mol
DOCKED: USER        Electrostatic Energy            =   +0.00 kcal/mol
DOCKED: USER    (2) Final Total Internal Energy     =   -1.62 kcal/mol
DOCKED: USER    (3) Torsional Free Energy           =   +2.68 kcal/mol
DOCKED: USER    (4) Unbound System's Energy  [=(2)] =   -1.62 kcal/mol
DOCKED: USER    
DOCKED: USER    
DOCKED: USER    NEWDPF move ligand.pdbqt
DOCKED: USER    NEWDPF about 0.359000 0.163000 0.443000
DOCKED: USER    NEWDPF tran0 26.927464 -18.082507 -1.504432
DOCKED: USER    NEWDPF quaternion0 0.769010 0.347292 0.245855 -0.477040
DOCKED: USER    NEWDPF axisangle0 0.874987 0.395152 0.279736 -123.015431
DOCKED: USER    NEWDPF quat0 0.874987 0.395152 0.279736 -123.015431
DOCKED: USER    NEWDPF dihe0 178.62 -4.18 -122.68 161.30 78.76 42.19 -172.37 -133.15 -16.48 
DOCKED: USER  keepresnum = 1 
DOCKED: USER  
DOCKED: REMARK  Name = 
DOCKED: REMARK  9 active torsions:
DOCKED: REMARK  status: ('A' for Active; 'I' for Inactive)
DOCKED: REMARK    1  A    between atoms: O_1  and  N_2
DOCKED: REMARK    2  A    between atoms: C_3  and  C_4
DOCKED: REMARK    3  A    between atoms: C_4  and  C_5
DOCKED: REMARK    4  A    between atoms: C_5  and  C_6
DOCKED: REMARK    5  A    between atoms: C_6  and  C_7
DOCKED: REMARK    6  A    between atoms: C_7  and  C_8
DOCKED: REMARK    7  A    between atoms: C_8  and  C_9
DOCKED: REMARK    8  A    between atoms: C_9  and  C_10
DOCKED: REMARK    9  A    between atoms: N_11  and  O_12
DOCKED: REMARK                            x       y       z     vdW  Elec       q    Type
DOCKED: REMARK                         _______ _______ _______ _____ _____    ______ ____
DOCKED: USER                              x       y       z     vdW  Elec       q    Type
DOCKED: USER                           _______ _______ _______ _____ _____    ______ ____
DOCKED: ROOT
DOCKED: ATOM      1  C   UNL     1      26.089 -17.854  -1.118 -0.54 -0.00    +0.000 C 
DOCKED: ENDROOT
DOCKED: BRANCH   1   2
DOCKED: ATOM      2  C   UNL     1      27.030 -16.745  -1.604 -0.44 -0.00    +0.000 C 
DOCKED: BRANCH   2   3
DOCKED: ATOM      3  C   UNL     1      26.279 -15.420  -1.771 -0.43 -0.00    +0.000 C 
DOCKED: BRANCH   3   5
DOCKED: ATOM      4  N   UNL     1      26.910 -15.511  -4.230 -0.44 -0.00    +0.000 N 
DOCKED: ATOM      5  C   UNL     1      25.959 -15.176  -3.215 -0.53 -0.00    +0.000 C 
DOCKED: ATOM      6  O   UNL     1      24.865 -14.637  -3.531 -0.84 -0.00    +0.000 OA
DOCKED: ATOM      7  H   UNL     1      27.778 -15.899  -3.976 -0.02 -0.00    +0.000 HD
DOCKED: BRANCH   4   8
DOCKED: ATOM      8  O   UNL     1      26.626 -15.298  -5.537 -1.16 +0.00    +0.000 OA
DOCKED: ATOM      9  H   UNL     1      25.730 -14.933  -5.617 -0.03 -0.00    +0.000 HD
DOCKED: ENDBRANCH   4   8
DOCKED: ENDBRANCH   3   5
DOCKED: ENDBRANCH   2   3
DOCKED: ENDBRANCH   1   2
DOCKED: BRANCH   1  10
DOCKED: ATOM     10  C   UNL     1      24.626 -17.386  -1.141 -0.71 -0.00    +0.000 C 
DOCKED: BRANCH  10  11
DOCKED: ATOM     11  C   UNL     1      23.625 -18.517  -0.842 -0.82 -0.00    +0.000 C 
DOCKED: BRANCH  11  12
DOCKED: ATOM     12  C   UNL     1      22.323 -18.039  -0.177 -0.80 -0.00    +0.000 C 
DOCKED: BRANCH  12  13
DOCKED: ATOM     13  C   UNL     1      21.098 -18.436  -0.951 -0.76 -0.00    +0.000 C 
DOCKED: ATOM     14  N   UNL     1      21.014 -19.725  -1.567 -0.72 -0.00    +0.000 N 
DOCKED: ATOM     15  O   UNL     1      20.148 -17.617  -1.082 -1.93 -0.00    +0.000 OA
DOCKED: ATOM     16  H   UNL     1      21.766 -20.355  -1.484 -0.32 -0.00    +0.000 HD
DOCKED: BRANCH  14  17
DOCKED: ATOM     17  O   UNL     1      19.909 -20.085  -2.262 -1.78 -0.00    +0.000 OA
DOCKED: ATOM     18  H   UNL     1      19.241 -19.385  -2.192 -0.46 -0.00    +0.000 HD
DOCKED: ENDBRANCH  14  17
DOCKED: ENDBRANCH  12  13
DOCKED: ENDBRANCH  11  12
DOCKED: ENDBRANCH  10  11
DOCKED: ENDBRANCH   1  10
DOCKED: TORSDOF 9
DOCKED: TER
DOCKED: ENDMDL
________________________________________________________________________________


	BEGINNING GENETIC ALGORITHM DOCKING 34 of 100
Run: 34 Seed: 1517287502 867430457 [ Run 34 of 100 GA/GALS ]
Beginning LAMARCKIAN GENETIC ALGORITHM (LGA), with a maximum of 2500000 energy evaluations.

Final-Value: -13.462


	FINAL GENETIC ALGORITHM DOCKED STATE
	_______________________________________________


Detailed state:  trans 26.419 -16.305 -2.546 quatxyzw -0.656839 -0.579127 -0.268122 0.401602 center 0.359 0.163 0.443 ntor 9 180.0000 6.9101 -58.4850 -162.6237 90.1118 10.5337 89.7859 -145.9349 -26.9830
State:	 26.419 -16.305  -2.546  -0.717 -0.632 -0.293 132.643    180.00    6.91  -58.49 -162.62   90.11   10.53   89.79 -145.93  -26.98

DOCKED: MODEL       34
DOCKED: USER    Run = 34
DOCKED: USER    DPF = ligand_dock.biased.dpf
DOCKED: USER  
DOCKED: USER    Estimated Free Energy of Binding    =   -9.26 kcal/mol  [=(1)+(2)+(3)-(4)]
DOCKED: USER    Estimated Inhibition Constant, Ki   =  164.09 nM (nanomolar)  [Temperature = 298.15 K]
DOCKED: USER    
DOCKED: USER    (1) Final Intermolecular Energy     =  -11.94 kcal/mol
DOCKED: USER        vdW + Hbond + desolv Energy     =  -11.94 kcal/mol
DOCKED: USER        Electrostatic Energy            =   +0.00 kcal/mol
DOCKED: USER    (2) Final Total Internal Energy     =   -1.52 kcal/mol
DOCKED: USER    (3) Torsional Free Energy           =   +2.68 kcal/mol
DOCKED: USER    (4) Unbound System's Energy  [=(2)] =   -1.52 kcal/mol
DOCKED: USER    
DOCKED: USER    
DOCKED: USER    NEWDPF move ligand.pdbqt
DOCKED: USER    NEWDPF about 0.359000 0.163000 0.443000
DOCKED: USER    NEWDPF tran0 26.418769 -16.304552 -2.546483
DOCKED: USER    NEWDPF quaternion0 -0.656839 -0.579127 -0.268122 0.401602
DOCKED: USER    NEWDPF axisangle0 -0.717219 -0.632363 -0.292769 132.643260
DOCKED: USER    NEWDPF quat0 -0.717219 -0.632363 -0.292769 132.643260
DOCKED: USER    NEWDPF dihe0 180.00 6.91 -58.49 -162.62 90.11 10.53 89.79 -145.93 -26.98 
DOCKED: USER  keepresnum = 1 
DOCKED: USER  
DOCKED: REMARK  Name = 
DOCKED: REMARK  9 active torsions:
DOCKED: REMARK  status: ('A' for Active; 'I' for Inactive)
DOCKED: REMARK    1  A    between atoms: O_1  and  N_2
DOCKED: REMARK    2  A    between atoms: C_3  and  C_4
DOCKED: REMARK    3  A    between atoms: C_4  and  C_5
DOCKED: REMARK    4  A    between atoms: C_5  and  C_6
DOCKED: REMARK    5  A    between atoms: C_6  and  C_7
DOCKED: REMARK    6  A    between atoms: C_7  and  C_8
DOCKED: REMARK    7  A    between atoms: C_8  and  C_9
DOCKED: REMARK    8  A    between atoms: C_9  and  C_10
DOCKED: REMARK    9  A    between atoms: N_11  and  O_12
DOCKED: REMARK                            x       y       z     vdW  Elec       q    Type
DOCKED: REMARK                         _______ _______ _______ _____ _____    ______ ____
DOCKED: USER                              x       y       z     vdW  Elec       q    Type
DOCKED: USER                           _______ _______ _______ _____ _____    ______ ____
DOCKED: ROOT
DOCKED: ATOM      1  C   UNL     1      25.646 -16.445  -2.010 -0.56 -0.00    +0.000 C 
DOCKED: ENDROOT
DOCKED: BRANCH   1   2
DOCKED: ATOM      2  C   UNL     1      25.845 -15.100  -2.720 -0.49 -0.00    +0.000 C 
DOCKED: BRANCH   2   3
DOCKED: ATOM      3  C   UNL     1      25.804 -15.270  -4.241 -0.60 -0.00    +0.000 C 
DOCKED: BRANCH   3   5
DOCKED: ATOM      4  N   UNL     1      28.169 -16.143  -3.934 -0.22 -0.00    +0.000 N 
DOCKED: ATOM      5  C   UNL     1      27.176 -15.550  -4.775 -0.40 -0.00    +0.000 C 
DOCKED: ATOM      6  O   UNL     1      27.465 -15.224  -5.958 -1.03 +0.00    +0.000 OA
DOCKED: ATOM      7  H   UNL     1      27.950 -16.363  -3.001 -0.01 -0.00    +0.000 HD
DOCKED: BRANCH   4   8
DOCKED: ATOM      8  O   UNL     1      29.410 -16.402  -4.412 -0.31 -0.00    +0.000 OA
DOCKED: ATOM      9  H   UNL     1      29.462 -16.127  -5.341 -0.02 -0.00    +0.000 HD
DOCKED: ENDBRANCH   4   8
DOCKED: ENDBRANCH   3   5
DOCKED: ENDBRANCH   2   3
DOCKED: ENDBRANCH   1   2
DOCKED: BRANCH   1  10
DOCKED: ATOM     10  C   UNL     1      24.156 -16.721  -1.760 -0.47 -0.00    +0.000 C 
DOCKED: BRANCH  10  11
DOCKED: ATOM     11  C   UNL     1      23.857 -18.203  -1.471 -0.76 -0.00    +0.000 C 
DOCKED: BRANCH  11  12
DOCKED: ATOM     12  C   UNL     1      22.842 -18.427  -0.335 -0.83 -0.00    +0.000 C 
DOCKED: BRANCH  12  13
DOCKED: ATOM     13  C   UNL     1      21.429 -18.529  -0.833 -0.83 -0.00    +0.000 C 
DOCKED: ATOM     14  N   UNL     1      20.970 -19.723  -1.476 -0.75 -0.00    +0.000 N 
DOCKED: ATOM     15  O   UNL     1      20.649 -17.547  -0.708 -2.13 +0.00    +0.000 OA
DOCKED: ATOM     16  H   UNL     1      21.588 -20.480  -1.595 -0.33 -0.00    +0.000 HD
DOCKED: BRANCH  14  17
DOCKED: ATOM     17  O   UNL     1      19.695 -19.818  -1.922 -1.72 -0.00    +0.000 OA
DOCKED: ATOM     18  H   UNL     1      19.255 -18.959  -1.828 -0.48 -0.00    +0.000 HD
DOCKED: ENDBRANCH  14  17
DOCKED: ENDBRANCH  12  13
DOCKED: ENDBRANCH  11  12
DOCKED: ENDBRANCH  10  11
DOCKED: ENDBRANCH   1  10
DOCKED: TORSDOF 9
DOCKED: TER
DOCKED: ENDMDL
________________________________________________________________________________


	BEGINNING GENETIC ALGORITHM DOCKING 35 of 100
Run: 35 Seed: 777312131 110869950 [ Run 35 of 100 GA/GALS ]
Beginning LAMARCKIAN GENETIC ALGORITHM (LGA), with a maximum of 2500000 energy evaluations.

Final-Value: -13.303


	FINAL GENETIC ALGORITHM DOCKED STATE
	_______________________________________________


Detailed state:  trans 25.091 -15.251 -2.173 quatxyzw -0.616252 0.193707 0.234797 -0.726348 center 0.359 0.163 0.443 ntor 9 -180.0000 -10.3769 -127.7317 -86.0505 47.3181 175.2500 -30.0934 -141.1046 -47.9093
State:	 25.091 -15.251  -2.173  -0.897  0.282  0.342 -86.838   -180.00  -10.38 -127.73  -86.05   47.32  175.25  -30.09 -141.10  -47.91

DOCKED: MODEL       35
DOCKED: USER    Run = 35
DOCKED: USER    DPF = ligand_dock.biased.dpf
DOCKED: USER  
DOCKED: USER    Estimated Free Energy of Binding    =   -9.16 kcal/mol  [=(1)+(2)+(3)-(4)]
DOCKED: USER    Estimated Inhibition Constant, Ki   =  192.83 nM (nanomolar)  [Temperature = 298.15 K]
DOCKED: USER    
DOCKED: USER    (1) Final Intermolecular Energy     =  -11.85 kcal/mol
DOCKED: USER        vdW + Hbond + desolv Energy     =  -11.85 kcal/mol
DOCKED: USER        Electrostatic Energy            =   +0.00 kcal/mol
DOCKED: USER    (2) Final Total Internal Energy     =   -1.46 kcal/mol
DOCKED: USER    (3) Torsional Free Energy           =   +2.68 kcal/mol
DOCKED: USER    (4) Unbound System's Energy  [=(2)] =   -1.46 kcal/mol
DOCKED: USER    
DOCKED: USER    
DOCKED: USER    NEWDPF move ligand.pdbqt
DOCKED: USER    NEWDPF about 0.359000 0.163000 0.443000
DOCKED: USER    NEWDPF tran0 25.091047 -15.250754 -2.172711
DOCKED: USER    NEWDPF quaternion0 -0.616252 0.193707 0.234797 -0.726348
DOCKED: USER    NEWDPF axisangle0 -0.896592 0.281827 0.341608 -86.837825
DOCKED: USER    NEWDPF quat0 -0.896592 0.281827 0.341608 -86.837825
DOCKED: USER    NEWDPF dihe0 -180.00 -10.38 -127.73 -86.05 47.32 175.25 -30.09 -141.10 -47.91 
DOCKED: USER  keepresnum = 1 
DOCKED: USER  
DOCKED: REMARK  Name = 
DOCKED: REMARK  9 active torsions:
DOCKED: REMARK  status: ('A' for Active; 'I' for Inactive)
DOCKED: REMARK    1  A    between atoms: O_1  and  N_2
DOCKED: REMARK    2  A    between atoms: C_3  and  C_4
DOCKED: REMARK    3  A    between atoms: C_4  and  C_5
DOCKED: REMARK    4  A    between atoms: C_5  and  C_6
DOCKED: REMARK    5  A    between atoms: C_6  and  C_7
DOCKED: REMARK    6  A    between atoms: C_7  and  C_8
DOCKED: REMARK    7  A    between atoms: C_8  and  C_9
DOCKED: REMARK    8  A    between atoms: C_9  and  C_10
DOCKED: REMARK    9  A    between atoms: N_11  and  O_12
DOCKED: REMARK                            x       y       z     vdW  Elec       q    Type
DOCKED: REMARK                         _______ _______ _______ _____ _____    ______ ____
DOCKED: USER                              x       y       z     vdW  Elec       q    Type
DOCKED: USER                           _______ _______ _______ _____ _____    ______ ____
DOCKED: ROOT
DOCKED: ATOM      1  C   UNL     1      24.804 -16.158  -2.148 -0.50 -0.00    +0.000 C 
DOCKED: ENDROOT
DOCKED: BRANCH   1   2
DOCKED: ATOM      2  C   UNL     1      26.254 -15.829  -2.525 -0.48 -0.00    +0.000 C 
DOCKED: BRANCH   2   3
DOCKED: ATOM      3  C   UNL     1      26.307 -14.844  -3.697 -0.50 -0.00    +0.000 C 
DOCKED: BRANCH   3   5
DOCKED: ATOM      4  N   UNL     1      28.559 -15.822  -4.347 -0.30 -0.00    +0.000 N 
DOCKED: ATOM      5  C   UNL     1      27.279 -15.317  -4.735 -0.46 -0.00    +0.000 C 
DOCKED: ATOM      6  O   UNL     1      26.981 -15.230  -5.957 -1.03 +0.00    +0.000 OA
DOCKED: ATOM      7  H   UNL     1      28.802 -15.855  -3.394 -0.00 -0.00    +0.000 HD
DOCKED: BRANCH   4   8
DOCKED: ATOM      8  O   UNL     1      29.441 -16.255  -5.279 -0.36 -0.00    +0.000 OA
DOCKED: ATOM      9  H   UNL     1      29.051 -16.155  -6.163 -0.04 -0.00    +0.000 HD
DOCKED: ENDBRANCH   4   8
DOCKED: ENDBRANCH   3   5
DOCKED: ENDBRANCH   2   3
DOCKED: ENDBRANCH   1   2
DOCKED: BRANCH   1  10
DOCKED: ATOM     10  C   UNL     1      24.695 -17.568  -1.551 -0.69 -0.00    +0.000 C 
DOCKED: BRANCH  10  11
DOCKED: ATOM     11  C   UNL     1      23.705 -17.651  -0.374 -0.72 -0.00    +0.000 C 
DOCKED: BRANCH  11  12
DOCKED: ATOM     12  C   UNL     1      22.898 -18.960  -0.327 -0.77 -0.00    +0.000 C 
DOCKED: BRANCH  12  13
DOCKED: ATOM     13  C   UNL     1      21.487 -18.789  -0.813 -0.86 -0.00    +0.000 C 
DOCKED: ATOM     14  N   UNL     1      20.781 -19.889  -1.395 -0.68 -0.00    +0.000 N 
DOCKED: ATOM     15  O   UNL     1      20.930 -17.661  -0.731 -2.13 -0.00    +0.000 OA
DOCKED: ATOM     16  H   UNL     1      21.226 -20.763  -1.480 -0.12 -0.00    +0.000 HD
DOCKED: BRANCH  14  17
DOCKED: ATOM     17  O   UNL     1      19.508 -19.737  -1.830 -1.67 -0.00    +0.000 OA
DOCKED: ATOM     18  H   UNL     1      19.164 -18.881  -1.530 -0.53 -0.00    +0.000 HD
DOCKED: ENDBRANCH  14  17
DOCKED: ENDBRANCH  12  13
DOCKED: ENDBRANCH  11  12
DOCKED: ENDBRANCH  10  11
DOCKED: ENDBRANCH   1  10
DOCKED: TORSDOF 9
DOCKED: TER
DOCKED: ENDMDL
________________________________________________________________________________


	BEGINNING GENETIC ALGORITHM DOCKING 36 of 100
Run: 36 Seed: 241321089 588431751 [ Run 36 of 100 GA/GALS ]
Beginning LAMARCKIAN GENETIC ALGORITHM (LGA), with a maximum of 2500000 energy evaluations.

Final-Value: -14.427


	FINAL GENETIC ALGORITHM DOCKED STATE
	_______________________________________________


Detailed state:  trans 26.841 -17.266 -0.656 quatxyzw -0.532100 -0.410938 -0.506887 0.539504 center 0.359 0.163 0.443 ntor 9 -176.0857 -4.9097 64.1077 -136.8415 70.1695 168.4439 -6.5028 -31.1133 84.4664
State:	 26.841 -17.266  -0.656  -0.632 -0.488 -0.602 114.700   -176.09   -4.91   64.11 -136.84   70.17  168.44   -6.50  -31.11   84.47

DOCKED: MODEL       36
DOCKED: USER    Run = 36
DOCKED: USER    DPF = ligand_dock.biased.dpf
DOCKED: USER  
DOCKED: USER    Estimated Free Energy of Binding    =  -10.23 kcal/mol  [=(1)+(2)+(3)-(4)]
DOCKED: USER    Estimated Inhibition Constant, Ki   =   31.68 nM (nanomolar)  [Temperature = 298.15 K]
DOCKED: USER    
DOCKED: USER    (1) Final Intermolecular Energy     =  -12.92 kcal/mol
DOCKED: USER        vdW + Hbond + desolv Energy     =  -12.92 kcal/mol
DOCKED: USER        Electrostatic Energy            =   +0.00 kcal/mol
DOCKED: USER    (2) Final Total Internal Energy     =   -1.51 kcal/mol
DOCKED: USER    (3) Torsional Free Energy           =   +2.68 kcal/mol
DOCKED: USER    (4) Unbound System's Energy  [=(2)] =   -1.51 kcal/mol
DOCKED: USER    
DOCKED: USER    
DOCKED: USER    NEWDPF move ligand.pdbqt
DOCKED: USER    NEWDPF about 0.359000 0.163000 0.443000
DOCKED: USER    NEWDPF tran0 26.840621 -17.265573 -0.655917
DOCKED: USER    NEWDPF quaternion0 -0.532100 -0.410938 -0.506887 0.539504
DOCKED: USER    NEWDPF axisangle0 -0.631960 -0.488060 -0.602016 114.700204
DOCKED: USER    NEWDPF quat0 -0.631960 -0.488060 -0.602016 114.700204
DOCKED: USER    NEWDPF dihe0 -176.09 -4.91 64.11 -136.84 70.17 168.44 -6.50 -31.11 84.47 
DOCKED: USER  keepresnum = 1 
DOCKED: USER  
DOCKED: REMARK  Name = 
DOCKED: REMARK  9 active torsions:
DOCKED: REMARK  status: ('A' for Active; 'I' for Inactive)
DOCKED: REMARK    1  A    between atoms: O_1  and  N_2
DOCKED: REMARK    2  A    between atoms: C_3  and  C_4
DOCKED: REMARK    3  A    between atoms: C_4  and  C_5
DOCKED: REMARK    4  A    between atoms: C_5  and  C_6
DOCKED: REMARK    5  A    between atoms: C_6  and  C_7
DOCKED: REMARK    6  A    between atoms: C_7  and  C_8
DOCKED: REMARK    7  A    between atoms: C_8  and  C_9
DOCKED: REMARK    8  A    between atoms: C_9  and  C_10
DOCKED: REMARK    9  A    between atoms: N_11  and  O_12
DOCKED: REMARK                            x       y       z     vdW  Elec       q    Type
DOCKED: REMARK                         _______ _______ _______ _____ _____    ______ ____
DOCKED: USER                              x       y       z     vdW  Elec       q    Type
DOCKED: USER                           _______ _______ _______ _____ _____    ______ ____
DOCKED: ROOT
DOCKED: ATOM      1  C   UNL     1      25.914 -17.464  -0.745 -0.63 -0.00    +0.000 C 
DOCKED: ENDROOT
DOCKED: BRANCH   1   2
DOCKED: ATOM      2  C   UNL     1      26.426 -16.056  -1.074 -0.46 -0.00    +0.000 C 
DOCKED: BRANCH   2   3
DOCKED: ATOM      3  C   UNL     1      27.633 -15.693  -0.204 -0.33 -0.00    +0.000 C 
DOCKED: BRANCH   3   5
DOCKED: ATOM      4  N   UNL     1      27.887 -14.613   2.082 -0.28 -0.00    +0.000 N 
DOCKED: ATOM      5  C   UNL     1      27.261 -14.639   0.796 -0.26 -0.00    +0.000 C 
DOCKED: ATOM      6  O   UNL     1      26.365 -13.799   0.515 -0.38 -0.00    +0.000 OA
DOCKED: ATOM      7  H   UNL     1      28.560 -15.293   2.310 -1.63 -0.00    +0.000 HD
DOCKED: BRANCH   4   8
DOCKED: ATOM      8  O   UNL     1      27.559 -13.662   2.988 -0.41 -0.00    +0.000 OA
DOCKED: ATOM      9  H   UNL     1      26.841 -13.112   2.633 -0.02 -0.00    +0.000 HD
DOCKED: ENDBRANCH   4   8
DOCKED: ENDBRANCH   3   5
DOCKED: ENDBRANCH   2   3
DOCKED: ENDBRANCH   1   2
DOCKED: BRANCH   1  10
DOCKED: ATOM     10  C   UNL     1      24.626 -17.777  -1.520 -0.69 -0.00    +0.000 C 
DOCKED: BRANCH  10  11
DOCKED: ATOM     11  C   UNL     1      23.354 -17.300  -0.795 -0.73 -0.00    +0.000 C 
DOCKED: BRANCH  11  12
DOCKED: ATOM     12  C   UNL     1      22.519 -18.438  -0.182 -0.81 -0.00    +0.000 C 
DOCKED: BRANCH  12  13
DOCKED: ATOM     13  C   UNL     1      21.217 -18.653  -0.901 -0.83 -0.00    +0.000 C 
DOCKED: ATOM     14  N   UNL     1      21.071 -19.733  -1.828 -0.64 -0.00    +0.000 N 
DOCKED: ATOM     15  O   UNL     1      20.257 -17.861  -0.706 -2.20 +0.00    +0.000 OA
DOCKED: ATOM     16  H   UNL     1      21.830 -20.337  -1.998 -0.47 -0.00    +0.000 HD
DOCKED: BRANCH  14  17
DOCKED: ATOM     17  O   UNL     1      19.897 -19.931  -2.474 -1.69 -0.00    +0.000 OA
DOCKED: ATOM     18  H   UNL     1      19.235 -19.305  -2.141 -0.45 -0.00    +0.000 HD
DOCKED: ENDBRANCH  14  17
DOCKED: ENDBRANCH  12  13
DOCKED: ENDBRANCH  11  12
DOCKED: ENDBRANCH  10  11
DOCKED: ENDBRANCH   1  10
DOCKED: TORSDOF 9
DOCKED: TER
DOCKED: ENDMDL
________________________________________________________________________________


	BEGINNING GENETIC ALGORITHM DOCKING 37 of 100
Run: 37 Seed: 1180496156 1576825631 [ Run 37 of 100 GA/GALS ]
Beginning LAMARCKIAN GENETIC ALGORITHM (LGA), with a maximum of 2500000 energy evaluations.

Final-Value: -14.035


	FINAL GENETIC ALGORITHM DOCKED STATE
	_______________________________________________


Detailed state:  trans 22.989 -17.241 -0.937 quatxyzw -0.167075 0.754733 0.193240 0.604254 center 0.359 0.163 0.443 ntor 9 171.4128 -8.2118 179.5780 84.3843 68.9112 -151.4217 78.3453 25.9927 40.2722
State:	 22.989 -17.241  -0.937  -0.210  0.947  0.243 105.650    171.41   -8.21  179.58   84.38   68.91 -151.42   78.35   25.99   40.27

DOCKED: MODEL       37
DOCKED: USER    Run = 37
DOCKED: USER    DPF = ligand_dock.biased.dpf
DOCKED: USER  
DOCKED: USER    Estimated Free Energy of Binding    =   -9.78 kcal/mol  [=(1)+(2)+(3)-(4)]
DOCKED: USER    Estimated Inhibition Constant, Ki   =   68.08 nM (nanomolar)  [Temperature = 298.15 K]
DOCKED: USER    
DOCKED: USER    (1) Final Intermolecular Energy     =  -12.46 kcal/mol
DOCKED: USER        vdW + Hbond + desolv Energy     =  -12.46 kcal/mol
DOCKED: USER        Electrostatic Energy            =   +0.00 kcal/mol
DOCKED: USER    (2) Final Total Internal Energy     =   -1.57 kcal/mol
DOCKED: USER    (3) Torsional Free Energy           =   +2.68 kcal/mol
DOCKED: USER    (4) Unbound System's Energy  [=(2)] =   -1.57 kcal/mol
DOCKED: USER    
DOCKED: USER    
DOCKED: USER    NEWDPF move ligand.pdbqt
DOCKED: USER    NEWDPF about 0.359000 0.163000 0.443000
DOCKED: USER    NEWDPF tran0 22.988649 -17.240958 -0.937292
DOCKED: USER    NEWDPF quaternion0 -0.167075 0.754733 0.193240 0.604254
DOCKED: USER    NEWDPF axisangle0 -0.209685 0.947215 0.242522 105.649703
DOCKED: USER    NEWDPF quat0 -0.209685 0.947215 0.242522 105.649703
DOCKED: USER    NEWDPF dihe0 171.41 -8.21 179.58 84.38 68.91 -151.42 78.35 25.99 40.27 
DOCKED: USER  keepresnum = 1 
DOCKED: USER  
DOCKED: REMARK  Name = 
DOCKED: REMARK  9 active torsions:
DOCKED: REMARK  status: ('A' for Active; 'I' for Inactive)
DOCKED: REMARK    1  A    between atoms: O_1  and  N_2
DOCKED: REMARK    2  A    between atoms: C_3  and  C_4
DOCKED: REMARK    3  A    between atoms: C_4  and  C_5
DOCKED: REMARK    4  A    between atoms: C_5  and  C_6
DOCKED: REMARK    5  A    between atoms: C_6  and  C_7
DOCKED: REMARK    6  A    between atoms: C_7  and  C_8
DOCKED: REMARK    7  A    between atoms: C_8  and  C_9
DOCKED: REMARK    8  A    between atoms: C_9  and  C_10
DOCKED: REMARK    9  A    between atoms: N_11  and  O_12
DOCKED: REMARK                            x       y       z     vdW  Elec       q    Type
DOCKED: REMARK                         _______ _______ _______ _____ _____    ______ ____
DOCKED: USER                              x       y       z     vdW  Elec       q    Type
DOCKED: USER                           _______ _______ _______ _____ _____    ______ ____
DOCKED: ROOT
DOCKED: ATOM      1  C   UNL     1      23.928 -17.130  -1.039 -0.71 -0.00    +0.000 C 
DOCKED: ENDROOT
DOCKED: BRANCH   1   2
DOCKED: ATOM      2  C   UNL     1      23.387 -18.232  -0.120 -0.78 -0.00    +0.000 C 
DOCKED: BRANCH   2   3
DOCKED: ATOM      3  C   UNL     1      22.388 -19.125  -0.862 -0.80 -0.00    +0.000 C 
DOCKED: BRANCH   3   5
DOCKED: ATOM      4  N   UNL     1      20.465 -19.802   0.653 -0.68 -0.00    +0.000 N 
DOCKED: ATOM      5  C   UNL     1      21.002 -18.914  -0.332 -0.83 -0.00    +0.000 C 
DOCKED: ATOM      6  O   UNL     1      20.295 -17.975  -0.785 -2.20 -0.00    +0.000 OA
DOCKED: ATOM      7  H   UNL     1      21.008 -20.556   0.978 -0.58 -0.00    +0.000 HD
DOCKED: BRANCH   4   8
DOCKED: ATOM      8  O   UNL     1      19.215 -19.615   1.140 -0.75 -0.00    +0.000 OA
DOCKED: ATOM      9  H   UNL     1      18.870 -18.765   0.824 -0.33 -0.00    +0.000 HD
DOCKED: ENDBRANCH   4   8
DOCKED: ENDBRANCH   3   5
DOCKED: ENDBRANCH   2   3
DOCKED: ENDBRANCH   1   2
DOCKED: BRANCH   1  10
DOCKED: ATOM     10  C   UNL     1      25.323 -17.489  -1.570 -0.63 -0.00    +0.000 C 
DOCKED: BRANCH  10  11
DOCKED: ATOM     11  C   UNL     1      26.344 -16.348  -1.408 -0.49 -0.00    +0.000 C 
DOCKED: BRANCH  11  12
DOCKED: ATOM     12  C   UNL     1      25.850 -14.988  -1.930 -0.42 -0.00    +0.000 C 
DOCKED: BRANCH  12  13
DOCKED: ATOM     13  C   UNL     1      25.741 -14.946  -3.427 -0.54 -0.00    +0.000 C 
DOCKED: ATOM     14  N   UNL     1      26.706 -15.618  -4.243 -0.47 -0.00    +0.000 N 
DOCKED: ATOM     15  O   UNL     1      24.809 -14.293  -3.969 -1.04 -0.00    +0.000 OA
DOCKED: ATOM     16  H   UNL     1      27.447 -16.108  -3.819 -0.02 -0.00    +0.000 HD
DOCKED: BRANCH  14  17
DOCKED: ATOM     17  O   UNL     1      26.608 -15.586  -5.594 -1.20 +0.00    +0.000 OA
DOCKED: ATOM     18  H   UNL     1      25.763 -15.180  -5.846 -0.02 +0.00    +0.000 HD
DOCKED: ENDBRANCH  14  17
DOCKED: ENDBRANCH  12  13
DOCKED: ENDBRANCH  11  12
DOCKED: ENDBRANCH  10  11
DOCKED: ENDBRANCH   1  10
DOCKED: TORSDOF 9
DOCKED: TER
DOCKED: ENDMDL
________________________________________________________________________________


	BEGINNING GENETIC ALGORITHM DOCKING 38 of 100
Run: 38 Seed: 1917562084 2075269934 [ Run 38 of 100 GA/GALS ]
Beginning LAMARCKIAN GENETIC ALGORITHM (LGA), with a maximum of 2500000 energy evaluations.

Final-Value: -13.095


	FINAL GENETIC ALGORITHM DOCKED STATE
	_______________________________________________


Detailed state:  trans 24.568 -15.918 -1.927 quatxyzw -0.750128 0.273565 0.259922 -0.543057 center 0.359 0.163 0.443 ntor 9 -179.3041 12.1296 174.3252 54.4497 54.0663 -172.9023 22.8487 43.7586 61.2617
State:	 24.568 -15.918  -1.927  -0.893  0.326  0.310 -114.216   -179.30   12.13  174.33   54.45   54.07 -172.90   22.85   43.76   61.26

DOCKED: MODEL       38
DOCKED: USER    Run = 38
DOCKED: USER    DPF = ligand_dock.biased.dpf
DOCKED: USER  
DOCKED: USER    Estimated Free Energy of Binding    =   -8.86 kcal/mol  [=(1)+(2)+(3)-(4)]
DOCKED: USER    Estimated Inhibition Constant, Ki   =  321.50 nM (nanomolar)  [Temperature = 298.15 K]
DOCKED: USER    
DOCKED: USER    (1) Final Intermolecular Energy     =  -11.54 kcal/mol
DOCKED: USER        vdW + Hbond + desolv Energy     =  -11.54 kcal/mol
DOCKED: USER        Electrostatic Energy            =   +0.00 kcal/mol
DOCKED: USER    (2) Final Total Internal Energy     =   -1.55 kcal/mol
DOCKED: USER    (3) Torsional Free Energy           =   +2.68 kcal/mol
DOCKED: USER    (4) Unbound System's Energy  [=(2)] =   -1.55 kcal/mol
DOCKED: USER    
DOCKED: USER    
DOCKED: USER    NEWDPF move ligand.pdbqt
DOCKED: USER    NEWDPF about 0.359000 0.163000 0.443000
DOCKED: USER    NEWDPF tran0 24.568007 -15.918231 -1.926956
DOCKED: USER    NEWDPF quaternion0 -0.750128 0.273565 0.259922 -0.543057
DOCKED: USER    NEWDPF axisangle0 -0.893333 0.325791 0.309543 -114.215996
DOCKED: USER    NEWDPF quat0 -0.893333 0.325791 0.309543 -114.215996
DOCKED: USER    NEWDPF dihe0 -179.30 12.13 174.33 54.45 54.07 -172.90 22.85 43.76 61.26 
DOCKED: USER  keepresnum = 1 
DOCKED: USER  
DOCKED: REMARK  Name = 
DOCKED: REMARK  9 active torsions:
DOCKED: REMARK  status: ('A' for Active; 'I' for Inactive)
DOCKED: REMARK    1  A    between atoms: O_1  and  N_2
DOCKED: REMARK    2  A    between atoms: C_3  and  C_4
DOCKED: REMARK    3  A    between atoms: C_4  and  C_5
DOCKED: REMARK    4  A    between atoms: C_5  and  C_6
DOCKED: REMARK    5  A    between atoms: C_6  and  C_7
DOCKED: REMARK    6  A    between atoms: C_7  and  C_8
DOCKED: REMARK    7  A    between atoms: C_8  and  C_9
DOCKED: REMARK    8  A    between atoms: C_9  and  C_10
DOCKED: REMARK    9  A    between atoms: N_11  and  O_12
DOCKED: REMARK                            x       y       z     vdW  Elec       q    Type
DOCKED: REMARK                         _______ _______ _______ _____ _____    ______ ____
DOCKED: USER                              x       y       z     vdW  Elec       q    Type
DOCKED: USER                           _______ _______ _______ _____ _____    ______ ____
DOCKED: ROOT
DOCKED: ATOM      1  C   UNL     1      24.386 -16.732  -1.468 -0.64 -0.00    +0.000 C 
DOCKED: ENDROOT
DOCKED: BRANCH   1   2
DOCKED: ATOM      2  C   UNL     1      25.729 -16.547  -2.186 -0.55 -0.00    +0.000 C 
DOCKED: BRANCH   2   3
DOCKED: ATOM      3  C   UNL     1      25.789 -15.192  -2.898 -0.51 -0.00    +0.000 C 
DOCKED: BRANCH   3   5
DOCKED: ATOM      4  N   UNL     1      27.456 -15.119  -4.813 -0.42 -0.00    +0.000 N 
DOCKED: ATOM      5  C   UNL     1      26.128 -15.374  -4.347 -0.57 -0.00    +0.000 C 
DOCKED: ATOM      6  O   UNL     1      25.230 -15.716  -5.161 -0.67 -0.00    +0.000 OA
DOCKED: ATOM      7  H   UNL     1      28.146 -14.817  -4.180 -0.00 -0.00    +0.000 HD
DOCKED: BRANCH   4   8
DOCKED: ATOM      8  O   UNL     1      27.770 -15.286  -6.120 -0.91 +0.00    +0.000 OA
DOCKED: ATOM      9  H   UNL     1      26.981 -15.572  -6.608 -0.04 +0.00    +0.000 HD
DOCKED: ENDBRANCH   4   8
DOCKED: ENDBRANCH   3   5
DOCKED: ENDBRANCH   2   3
DOCKED: ENDBRANCH   1   2
DOCKED: BRANCH   1  10
DOCKED: ATOM     10  C   UNL     1      24.512 -17.737  -0.314 -0.69 -0.00    +0.000 C 
DOCKED: BRANCH  10  11
DOCKED: ATOM     11  C   UNL     1      23.785 -19.066  -0.589 -0.60 -0.00    +0.000 C 
DOCKED: BRANCH  11  12
DOCKED: ATOM     12  C   UNL     1      22.521 -18.920  -1.455 -0.73 -0.00    +0.000 C 
DOCKED: BRANCH  12  13
DOCKED: ATOM     13  C   UNL     1      21.278 -18.719  -0.636 -0.86 -0.00    +0.000 C 
DOCKED: ATOM     14  N   UNL     1      20.782 -19.768   0.201 -0.69 -0.00    +0.000 N 
DOCKED: ATOM     15  O   UNL     1      20.653 -17.627  -0.707 -2.18 +0.00    +0.000 OA
DOCKED: ATOM     16  H   UNL     1      21.258 -20.629   0.237 -0.45 -0.00    +0.000 HD
DOCKED: BRANCH  14  17
DOCKED: ATOM     17  O   UNL     1      19.664 -19.587   0.943 -0.77 -0.00    +0.000 OA
DOCKED: ATOM     18  H   UNL     1      19.215 -18.777   0.656 -0.26 -0.00    +0.000 HD
DOCKED: ENDBRANCH  14  17
DOCKED: ENDBRANCH  12  13
DOCKED: ENDBRANCH  11  12
DOCKED: ENDBRANCH  10  11
DOCKED: ENDBRANCH   1  10
DOCKED: TORSDOF 9
DOCKED: TER
DOCKED: ENDMDL
________________________________________________________________________________


	BEGINNING GENETIC ALGORITHM DOCKING 39 of 100
Run: 39 Seed: 1920388589 1413562193 [ Run 39 of 100 GA/GALS ]
Beginning LAMARCKIAN GENETIC ALGORITHM (LGA), with a maximum of 2500000 energy evaluations.

Final-Value: -14.030


	FINAL GENETIC ALGORITHM DOCKED STATE
	_______________________________________________


Detailed state:  trans 24.493 -17.574 -0.702 quatxyzw 0.248990 -0.069226 -0.905081 -0.337697 center 0.359 0.163 0.443 ntor 9 -177.7046 26.6272 2.5985 8.9088 -21.3968 -92.8316 10.2506 -76.9209 -94.8809
State:	 24.493 -17.574  -0.702   0.265 -0.074 -0.962 -140.527   -177.70   26.63    2.60    8.91  -21.40  -92.83   10.25  -76.92  -94.88

DOCKED: MODEL       39
DOCKED: USER    Run = 39
DOCKED: USER    DPF = ligand_dock.biased.dpf
DOCKED: USER  
DOCKED: USER    Estimated Free Energy of Binding    =   -9.93 kcal/mol  [=(1)+(2)+(3)-(4)]
DOCKED: USER    Estimated Inhibition Constant, Ki   =   52.86 nM (nanomolar)  [Temperature = 298.15 K]
DOCKED: USER    
DOCKED: USER    (1) Final Intermolecular Energy     =  -12.61 kcal/mol
DOCKED: USER        vdW + Hbond + desolv Energy     =  -12.61 kcal/mol
DOCKED: USER        Electrostatic Energy            =   +0.00 kcal/mol
DOCKED: USER    (2) Final Total Internal Energy     =   -1.42 kcal/mol
DOCKED: USER    (3) Torsional Free Energy           =   +2.68 kcal/mol
DOCKED: USER    (4) Unbound System's Energy  [=(2)] =   -1.42 kcal/mol
DOCKED: USER    
DOCKED: USER    
DOCKED: USER    NEWDPF move ligand.pdbqt
DOCKED: USER    NEWDPF about 0.359000 0.163000 0.443000
DOCKED: USER    NEWDPF tran0 24.493264 -17.573545 -0.702283
DOCKED: USER    NEWDPF quaternion0 0.248990 -0.069226 -0.905081 -0.337697
DOCKED: USER    NEWDPF axisangle0 0.264530 -0.073547 -0.961569 -140.526705
DOCKED: USER    NEWDPF quat0 0.264530 -0.073547 -0.961569 -140.526705
DOCKED: USER    NEWDPF dihe0 -177.70 26.63 2.60 8.91 -21.40 -92.83 10.25 -76.92 -94.88 
DOCKED: USER  keepresnum = 1 
DOCKED: USER  
DOCKED: REMARK  Name = 
DOCKED: REMARK  9 active torsions:
DOCKED: REMARK  status: ('A' for Active; 'I' for Inactive)
DOCKED: REMARK    1  A    between atoms: O_1  and  N_2
DOCKED: REMARK    2  A    between atoms: C_3  and  C_4
DOCKED: REMARK    3  A    between atoms: C_4  and  C_5
DOCKED: REMARK    4  A    between atoms: C_5  and  C_6
DOCKED: REMARK    5  A    between atoms: C_6  and  C_7
DOCKED: REMARK    6  A    between atoms: C_7  and  C_8
DOCKED: REMARK    7  A    between atoms: C_8  and  C_9
DOCKED: REMARK    8  A    between atoms: C_9  and  C_10
DOCKED: REMARK    9  A    between atoms: N_11  and  O_12
DOCKED: REMARK                            x       y       z     vdW  Elec       q    Type
DOCKED: REMARK                         _______ _______ _______ _____ _____    ______ ____
DOCKED: USER                              x       y       z     vdW  Elec       q    Type
DOCKED: USER                           _______ _______ _______ _____ _____    ______ ____
DOCKED: ROOT
DOCKED: ATOM      1  C   UNL     1      25.173 -17.337  -1.325 -0.66 -0.00    +0.000 C 
DOCKED: ENDROOT
DOCKED: BRANCH   1   2
DOCKED: ATOM      2  C   UNL     1      23.836 -17.894  -1.832 -0.60 -0.00    +0.000 C 
DOCKED: BRANCH   2   3
DOCKED: ATOM      3  C   UNL     1      23.042 -18.538  -0.691 -0.83 -0.00    +0.000 C 
DOCKED: BRANCH   3   5
DOCKED: ATOM      4  N   UNL     1      21.079 -19.720  -1.787 -0.64 -0.00    +0.000 N 
DOCKED: ATOM      5  C   UNL     1      21.586 -18.610  -1.041 -0.81 -0.00    +0.000 C 
DOCKED: ATOM      6  O   UNL     1      20.816 -17.669  -0.711 -2.17 -0.00    +0.000 OA
DOCKED: ATOM      7  H   UNL     1      21.691 -20.436  -2.074 -0.49 -0.00    +0.000 HD
DOCKED: BRANCH   4   8
DOCKED: ATOM      8  O   UNL     1      19.764 -19.795  -2.103 -1.76 -0.00    +0.000 OA
DOCKED: ATOM      9  H   UNL     1      19.310 -18.999  -1.781 -0.45 -0.00    +0.000 HD
DOCKED: ENDBRANCH   4   8
DOCKED: ENDBRANCH   3   5
DOCKED: ENDBRANCH   2   3
DOCKED: ENDBRANCH   1   2
DOCKED: BRANCH   1  10
DOCKED: ATOM     10  C   UNL     1      25.840 -16.453  -2.388 -0.52 -0.00    +0.000 C 
DOCKED: BRANCH  10  11
DOCKED: ATOM     11  C   UNL     1      25.508 -14.958  -2.226 -0.41 -0.00    +0.000 C 
DOCKED: BRANCH  11  12
DOCKED: ATOM     12  C   UNL     1      25.568 -14.158  -3.539 -0.49 -0.00    +0.000 C 
DOCKED: BRANCH  12  13
DOCKED: ATOM     13  C   UNL     1      26.198 -14.933  -4.662 -0.53 -0.00    +0.000 C 
DOCKED: ATOM     14  N   UNL     1      27.461 -14.532  -5.201 -0.39 -0.00    +0.000 N 
DOCKED: ATOM     15  O   UNL     1      25.597 -15.928  -5.149 -1.02 -0.00    +0.000 OA
DOCKED: ATOM     16  H   UNL     1      27.918 -13.740  -4.835 -0.00 -0.00    +0.000 HD
DOCKED: BRANCH  14  17
DOCKED: ATOM     17  O   UNL     1      28.033 -15.232  -6.209 -0.83 +0.00    +0.000 OA
DOCKED: ATOM     18  H   UNL     1      27.342 -15.677  -6.725 -0.00 +0.00    +0.000 HD
DOCKED: ENDBRANCH  14  17
DOCKED: ENDBRANCH  12  13
DOCKED: ENDBRANCH  11  12
DOCKED: ENDBRANCH  10  11
DOCKED: ENDBRANCH   1  10
DOCKED: TORSDOF 9
DOCKED: TER
DOCKED: ENDMDL
________________________________________________________________________________


	BEGINNING GENETIC ALGORITHM DOCKING 40 of 100
Run: 40 Seed: 1431616827 756965270 [ Run 40 of 100 GA/GALS ]
Beginning LAMARCKIAN GENETIC ALGORITHM (LGA), with a maximum of 2500000 energy evaluations.

Final-Value: -12.256


	FINAL GENETIC ALGORITHM DOCKED STATE
	_______________________________________________


Detailed state:  trans 26.015 -16.377 -2.762 quatxyzw -0.539080 -0.785102 -0.282226 0.115571 center 0.359 0.163 0.443 ntor 9 -160.7625 5.9987 157.2358 -53.8059 -129.3016 -17.7705 4.6615 180.0000 122.9114
State:	 26.015 -16.377  -2.762  -0.543 -0.790 -0.284 166.727   -160.76    6.00  157.24  -53.81 -129.30  -17.77    4.66  180.00  122.91

DOCKED: MODEL       40
DOCKED: USER    Run = 40
DOCKED: USER    DPF = ligand_dock.biased.dpf
DOCKED: USER  
DOCKED: USER    Estimated Free Energy of Binding    =   -8.00 kcal/mol  [=(1)+(2)+(3)-(4)]
DOCKED: USER    Estimated Inhibition Constant, Ki   =    1.38 uM (micromolar)  [Temperature = 298.15 K]
DOCKED: USER    
DOCKED: USER    (1) Final Intermolecular Energy     =  -10.68 kcal/mol
DOCKED: USER        vdW + Hbond + desolv Energy     =  -10.68 kcal/mol
DOCKED: USER        Electrostatic Energy            =   +0.00 kcal/mol
DOCKED: USER    (2) Final Total Internal Energy     =   -1.58 kcal/mol
DOCKED: USER    (3) Torsional Free Energy           =   +2.68 kcal/mol
DOCKED: USER    (4) Unbound System's Energy  [=(2)] =   -1.58 kcal/mol
DOCKED: USER    
DOCKED: USER    
DOCKED: USER    NEWDPF move ligand.pdbqt
DOCKED: USER    NEWDPF about 0.359000 0.163000 0.443000
DOCKED: USER    NEWDPF tran0 26.015135 -16.377157 -2.761628
DOCKED: USER    NEWDPF quaternion0 -0.539080 -0.785102 -0.282226 0.115571
DOCKED: USER    NEWDPF axisangle0 -0.542716 -0.790398 -0.284130 166.726830
DOCKED: USER    NEWDPF quat0 -0.542716 -0.790398 -0.284130 166.726830
DOCKED: USER    NEWDPF dihe0 -160.76 6.00 157.24 -53.81 -129.30 -17.77 4.66 180.00 122.91 
DOCKED: USER  keepresnum = 1 
DOCKED: USER  
DOCKED: REMARK  Name = 
DOCKED: REMARK  9 active torsions:
DOCKED: REMARK  status: ('A' for Active; 'I' for Inactive)
DOCKED: REMARK    1  A    between atoms: O_1  and  N_2
DOCKED: REMARK    2  A    between atoms: C_3  and  C_4
DOCKED: REMARK    3  A    between atoms: C_4  and  C_5
DOCKED: REMARK    4  A    between atoms: C_5  and  C_6
DOCKED: REMARK    5  A    between atoms: C_6  and  C_7
DOCKED: REMARK    6  A    between atoms: C_7  and  C_8
DOCKED: REMARK    7  A    between atoms: C_8  and  C_9
DOCKED: REMARK    8  A    between atoms: C_9  and  C_10
DOCKED: REMARK    9  A    between atoms: N_11  and  O_12
DOCKED: REMARK                            x       y       z     vdW  Elec       q    Type
DOCKED: REMARK                         _______ _______ _______ _____ _____    ______ ____
DOCKED: USER                              x       y       z     vdW  Elec       q    Type
DOCKED: USER                           _______ _______ _______ _____ _____    ______ ____
DOCKED: ROOT
DOCKED: ATOM      1  C   UNL     1      25.740 -16.963  -2.064 -0.52 -0.00    +0.000 C 
DOCKED: ENDROOT
DOCKED: BRANCH   1   2
DOCKED: ATOM      2  C   UNL     1      24.914 -15.708  -2.373 -0.36 -0.00    +0.000 C 
DOCKED: BRANCH   2   3
DOCKED: ATOM      3  C   UNL     1      25.748 -14.676  -3.138 -0.49 -0.00    +0.000 C 
DOCKED: BRANCH   3   5
DOCKED: ATOM      4  N   UNL     1      27.838 -15.329  -4.426 -0.35 -0.00    +0.000 N 
DOCKED: ATOM      5  C   UNL     1      26.412 -15.312  -4.323 -0.55 -0.00    +0.000 C 
DOCKED: ATOM      6  O   UNL     1      25.707 -15.796  -5.248 -1.03 +0.00    +0.000 OA
DOCKED: ATOM      7  H   UNL     1      28.384 -14.917  -3.718 +0.00 -0.00    +0.000 HD
DOCKED: BRANCH   4   8
DOCKED: ATOM      8  O   UNL     1      28.444 -15.905  -5.492 -0.59 -0.00    +0.000 OA
DOCKED: ATOM      9  H   UNL     1      27.808 -15.984  -6.221 -0.04 +0.00    +0.000 HD
DOCKED: ENDBRANCH   4   8
DOCKED: ENDBRANCH   3   5
DOCKED: ENDBRANCH   2   3
DOCKED: ENDBRANCH   1   2
DOCKED: BRANCH   1  10
DOCKED: ATOM     10  C   UNL     1      24.869 -18.054  -1.425 -0.61 -0.00    +0.000 C 
DOCKED: BRANCH  10  11
DOCKED: ATOM     11  C   UNL     1      24.000 -17.531  -0.266 -0.63 -0.00    +0.000 C 
DOCKED: BRANCH  11  12
DOCKED: ATOM     12  C   UNL     1      22.516 -17.348  -0.630 -0.75 -0.00    +0.000 C 
DOCKED: BRANCH  12  13
DOCKED: ATOM     13  C   UNL     1      21.842 -18.643  -0.984 -0.83 -0.00    +0.000 C 
DOCKED: ATOM     14  N   UNL     1      20.487 -18.654  -1.445 -0.59 -0.00    +0.000 N 
DOCKED: ATOM     15  O   UNL     1      22.466 -19.730  -0.848 -0.75 -0.00    +0.000 OA
DOCKED: ATOM     16  H   UNL     1      19.993 -17.806  -1.527 -0.48 -0.00    +0.000 HD
DOCKED: BRANCH  14  17
DOCKED: ATOM     17  O   UNL     1      19.880 -19.820  -1.768 -1.82 -0.00    +0.000 OA
DOCKED: ATOM     18  H   UNL     1      20.463 -20.562  -1.542 -0.30 -0.00    +0.000 HD
DOCKED: ENDBRANCH  14  17
DOCKED: ENDBRANCH  12  13
DOCKED: ENDBRANCH  11  12
DOCKED: ENDBRANCH  10  11
DOCKED: ENDBRANCH   1  10
DOCKED: TORSDOF 9
DOCKED: TER
DOCKED: ENDMDL
________________________________________________________________________________


	BEGINNING GENETIC ALGORITHM DOCKING 41 of 100
Run: 41 Seed: 829163407 1317480481 [ Run 41 of 100 GA/GALS ]
Beginning LAMARCKIAN GENETIC ALGORITHM (LGA), with a maximum of 2500000 energy evaluations.

Final-Value: -13.792


	FINAL GENETIC ALGORITHM DOCKED STATE
	_______________________________________________


Detailed state:  trans 26.362 -16.548 -0.921 quatxyzw -0.574788 -0.368208 -0.727525 0.068912 center 0.359 0.163 0.443 ntor 9 167.3985 -2.3522 174.2621 -179.8937 94.4410 23.1183 49.8182 152.3468 69.3685
State:	 26.362 -16.548  -0.921  -0.576 -0.369 -0.729 172.097    167.40   -2.35  174.26 -179.89   94.44   23.12   49.82  152.35   69.37

DOCKED: MODEL       41
DOCKED: USER    Run = 41
DOCKED: USER    DPF = ligand_dock.biased.dpf
DOCKED: USER  
DOCKED: USER    Estimated Free Energy of Binding    =   -9.57 kcal/mol  [=(1)+(2)+(3)-(4)]
DOCKED: USER    Estimated Inhibition Constant, Ki   =   95.86 nM (nanomolar)  [Temperature = 298.15 K]
DOCKED: USER    
DOCKED: USER    (1) Final Intermolecular Energy     =  -12.26 kcal/mol
DOCKED: USER        vdW + Hbond + desolv Energy     =  -12.26 kcal/mol
DOCKED: USER        Electrostatic Energy            =   +0.00 kcal/mol
DOCKED: USER    (2) Final Total Internal Energy     =   -1.53 kcal/mol
DOCKED: USER    (3) Torsional Free Energy           =   +2.68 kcal/mol
DOCKED: USER    (4) Unbound System's Energy  [=(2)] =   -1.53 kcal/mol
DOCKED: USER    
DOCKED: USER    
DOCKED: USER    NEWDPF move ligand.pdbqt
DOCKED: USER    NEWDPF about 0.359000 0.163000 0.443000
DOCKED: USER    NEWDPF tran0 26.362334 -16.548022 -0.920586
DOCKED: USER    NEWDPF quaternion0 -0.574788 -0.368208 -0.727525 0.068912
DOCKED: USER    NEWDPF axisangle0 -0.576158 -0.369085 -0.729259 172.097037
DOCKED: USER    NEWDPF quat0 -0.576158 -0.369085 -0.729259 172.097037
DOCKED: USER    NEWDPF dihe0 167.40 -2.35 174.26 -179.89 94.44 23.12 49.82 152.35 69.37 
DOCKED: USER  keepresnum = 1 
DOCKED: USER  
DOCKED: REMARK  Name = 
DOCKED: REMARK  9 active torsions:
DOCKED: REMARK  status: ('A' for Active; 'I' for Inactive)
DOCKED: REMARK    1  A    between atoms: O_1  and  N_2
DOCKED: REMARK    2  A    between atoms: C_3  and  C_4
DOCKED: REMARK    3  A    between atoms: C_4  and  C_5
DOCKED: REMARK    4  A    between atoms: C_5  and  C_6
DOCKED: REMARK    5  A    between atoms: C_6  and  C_7
DOCKED: REMARK    6  A    between atoms: C_7  and  C_8
DOCKED: REMARK    7  A    between atoms: C_8  and  C_9
DOCKED: REMARK    8  A    between atoms: C_9  and  C_10
DOCKED: REMARK    9  A    between atoms: N_11  and  O_12
DOCKED: REMARK                            x       y       z     vdW  Elec       q    Type
DOCKED: REMARK                         _______ _______ _______ _____ _____    ______ ____
DOCKED: USER                              x       y       z     vdW  Elec       q    Type
DOCKED: USER                           _______ _______ _______ _____ _____    ______ ____
DOCKED: ROOT
DOCKED: ATOM      1  C   UNL     1      25.696 -17.153  -1.231 -0.61 -0.00    +0.000 C 
DOCKED: ENDROOT
DOCKED: BRANCH   1   2
DOCKED: ATOM      2  C   UNL     1      25.287 -15.934  -0.395 +0.01 -0.00    +0.000 C 
DOCKED: BRANCH   2   3
DOCKED: ATOM      3  C   UNL     1      26.322 -14.812  -0.516 -0.35 -0.00    +0.000 C 
DOCKED: BRANCH   3   5
DOCKED: ATOM      4  N   UNL     1      27.473 -14.244   1.677 -0.30 -0.00    +0.000 N 
DOCKED: ATOM      5  C   UNL     1      27.432 -15.014   0.472 -0.30 -0.00    +0.000 C 
DOCKED: ATOM      6  O   UNL     1      28.352 -15.836   0.219 -0.30 -0.00    +0.000 OA
DOCKED: ATOM      7  H   UNL     1      26.771 -13.577   1.854 -0.02 -0.00    +0.000 HD
DOCKED: BRANCH   4   8
DOCKED: ATOM      8  O   UNL     1      28.470 -14.424   2.576 -0.34 -0.00    +0.000 OA
DOCKED: ATOM      9  H   UNL     1      28.957 -15.235   2.359 -1.92 -0.00    +0.000 HD
DOCKED: ENDBRANCH   4   8
DOCKED: ENDBRANCH   3   5
DOCKED: ENDBRANCH   2   3
DOCKED: ENDBRANCH   1   2
DOCKED: BRANCH   1  10
DOCKED: ATOM     10  C   UNL     1      24.546 -17.610  -2.140 -0.50 -0.00    +0.000 C 
DOCKED: BRANCH  10  11
DOCKED: ATOM     11  C   UNL     1      23.804 -18.846  -1.598 -0.56 -0.00    +0.000 C 
DOCKED: BRANCH  11  12
DOCKED: ATOM     12  C   UNL     1      22.841 -18.538  -0.438 -0.83 -0.00    +0.000 C 
DOCKED: BRANCH  12  13
DOCKED: ATOM     13  C   UNL     1      21.400 -18.549  -0.862 -0.83 -0.00    +0.000 C 
DOCKED: ATOM     14  N   UNL     1      20.824 -19.722  -1.445 -0.79 -0.00    +0.000 N 
DOCKED: ATOM     15  O   UNL     1      20.701 -17.509  -0.728 -2.10 +0.00    +0.000 OA
DOCKED: ATOM     16  H   UNL     1      21.378 -20.526  -1.571 -0.29 -0.00    +0.000 HD
DOCKED: BRANCH  14  17
DOCKED: ATOM     17  O   UNL     1      19.524 -19.735  -1.824 -1.68 -0.00    +0.000 OA
DOCKED: ATOM     18  H   UNL     1      19.114 -18.886  -1.599 -0.56 -0.00    +0.000 HD
DOCKED: ENDBRANCH  14  17
DOCKED: ENDBRANCH  12  13
DOCKED: ENDBRANCH  11  12
DOCKED: ENDBRANCH  10  11
DOCKED: ENDBRANCH   1  10
DOCKED: TORSDOF 9
DOCKED: TER
DOCKED: ENDMDL
________________________________________________________________________________


	BEGINNING GENETIC ALGORITHM DOCKING 42 of 100
Run: 42 Seed: 1068657408 281246563 [ Run 42 of 100 GA/GALS ]
Beginning LAMARCKIAN GENETIC ALGORITHM (LGA), with a maximum of 2500000 energy evaluations.

Final-Value: -13.623


	FINAL GENETIC ALGORITHM DOCKED STATE
	_______________________________________________


Detailed state:  trans 25.824 -16.560 -1.980 quatxyzw -0.733918 -0.649995 -0.104743 -0.167032 center 0.359 0.163 0.443 ntor 9 179.5225 28.9372 121.8781 -28.6554 -137.8608 100.4348 -5.7013 158.9307 -127.5766
State:	 25.824 -16.560  -1.980  -0.744 -0.659 -0.106 -160.769    179.52   28.94  121.88  -28.66 -137.86  100.43   -5.70  158.93 -127.58

DOCKED: MODEL       42
DOCKED: USER    Run = 42
DOCKED: USER    DPF = ligand_dock.biased.dpf
DOCKED: USER  
DOCKED: USER    Estimated Free Energy of Binding    =   -9.53 kcal/mol  [=(1)+(2)+(3)-(4)]
DOCKED: USER    Estimated Inhibition Constant, Ki   =  102.79 nM (nanomolar)  [Temperature = 298.15 K]
DOCKED: USER    
DOCKED: USER    (1) Final Intermolecular Energy     =  -12.22 kcal/mol
DOCKED: USER        vdW + Hbond + desolv Energy     =  -12.22 kcal/mol
DOCKED: USER        Electrostatic Energy            =   +0.00 kcal/mol
DOCKED: USER    (2) Final Total Internal Energy     =   -1.41 kcal/mol
DOCKED: USER    (3) Torsional Free Energy           =   +2.68 kcal/mol
DOCKED: USER    (4) Unbound System's Energy  [=(2)] =   -1.41 kcal/mol
DOCKED: USER    
DOCKED: USER    
DOCKED: USER    NEWDPF move ligand.pdbqt
DOCKED: USER    NEWDPF about 0.359000 0.163000 0.443000
DOCKED: USER    NEWDPF tran0 25.824098 -16.560044 -1.980327
DOCKED: USER    NEWDPF quaternion0 -0.733918 -0.649995 -0.104743 -0.167032
DOCKED: USER    NEWDPF axisangle0 -0.744375 -0.659257 -0.106236 -160.769400
DOCKED: USER    NEWDPF quat0 -0.744375 -0.659257 -0.106236 -160.769400
DOCKED: USER    NEWDPF dihe0 179.52 28.94 121.88 -28.66 -137.86 100.43 -5.70 158.93 -127.58 
DOCKED: USER  keepresnum = 1 
DOCKED: USER  
DOCKED: REMARK  Name = 
DOCKED: REMARK  9 active torsions:
DOCKED: REMARK  status: ('A' for Active; 'I' for Inactive)
DOCKED: REMARK    1  A    between atoms: O_1  and  N_2
DOCKED: REMARK    2  A    between atoms: C_3  and  C_4
DOCKED: REMARK    3  A    between atoms: C_4  and  C_5
DOCKED: REMARK    4  A    between atoms: C_5  and  C_6
DOCKED: REMARK    5  A    between atoms: C_6  and  C_7
DOCKED: REMARK    6  A    between atoms: C_7  and  C_8
DOCKED: REMARK    7  A    between atoms: C_8  and  C_9
DOCKED: REMARK    8  A    between atoms: C_9  and  C_10
DOCKED: REMARK    9  A    between atoms: N_11  and  O_12
DOCKED: REMARK                            x       y       z     vdW  Elec       q    Type
DOCKED: REMARK                         _______ _______ _______ _____ _____    ______ ____
DOCKED: USER                              x       y       z     vdW  Elec       q    Type
DOCKED: USER                           _______ _______ _______ _____ _____    ______ ____
DOCKED: ROOT
DOCKED: ATOM      1  C   UNL     1      25.864 -17.215  -1.291 -0.59 -0.00    +0.000 C 
DOCKED: ENDROOT
DOCKED: BRANCH   1   2
DOCKED: ATOM      2  C   UNL     1      25.549 -15.756  -0.937 -0.46 -0.00    +0.000 C 
DOCKED: BRANCH   2   3
DOCKED: ATOM      3  C   UNL     1      26.232 -14.794  -1.914 -0.38 -0.00    +0.000 C 
DOCKED: BRANCH   3   5
DOCKED: ATOM      4  N   UNL     1      27.073 -14.920  -4.307 -0.39 -0.00    +0.000 N 
DOCKED: ATOM      5  C   UNL     1      26.111 -15.300  -3.320 -0.52 -0.00    +0.000 C 
DOCKED: ATOM      6  O   UNL     1      25.135 -16.030  -3.640 -0.54 -0.00    +0.000 OA
DOCKED: ATOM      7  H   UNL     1      27.814 -14.321  -4.062 +0.00 -0.00    +0.000 HD
DOCKED: BRANCH   4   8
DOCKED: ATOM      8  O   UNL     1      26.972 -15.377  -5.578 -1.15 +0.00    +0.000 OA
DOCKED: ATOM      9  H   UNL     1      26.197 -15.957  -5.652 -0.09 +0.00    +0.000 HD
DOCKED: ENDBRANCH   4   8
DOCKED: ENDBRANCH   3   5
DOCKED: ENDBRANCH   2   3
DOCKED: ENDBRANCH   1   2
DOCKED: BRANCH   1  10
DOCKED: ATOM     10  C   UNL     1      25.275 -18.175  -0.248 -0.70 -0.00    +0.000 C 
DOCKED: BRANCH  10  11
DOCKED: ATOM     11  C   UNL     1      23.741 -18.090  -0.146 -0.74 -0.00    +0.000 C 
DOCKED: BRANCH  11  12
DOCKED: ATOM     12  C   UNL     1      22.997 -18.925  -1.204 -0.80 -0.00    +0.000 C 
DOCKED: BRANCH  12  13
DOCKED: ATOM     13  C   UNL     1      21.504 -18.784  -1.107 -0.80 -0.00    +0.000 C 
DOCKED: ATOM     14  N   UNL     1      20.647 -19.862  -1.498 -0.75 -0.00    +0.000 N 
DOCKED: ATOM     15  O   UNL     1      21.003 -17.701  -0.703 -2.13 -0.00    +0.000 OA
DOCKED: ATOM     16  H   UNL     1      21.040 -20.699  -1.836 -0.30 -0.00    +0.000 HD
DOCKED: BRANCH  14  17
DOCKED: ATOM     17  O   UNL     1      19.302 -19.739  -1.407 -1.32 -0.00    +0.000 OA
DOCKED: ATOM     18  H   UNL     1      19.055 -18.806  -1.513 -0.57 -0.00    +0.000 HD
DOCKED: ENDBRANCH  14  17
DOCKED: ENDBRANCH  12  13
DOCKED: ENDBRANCH  11  12
DOCKED: ENDBRANCH  10  11
DOCKED: ENDBRANCH   1  10
DOCKED: TORSDOF 9
DOCKED: TER
DOCKED: ENDMDL
________________________________________________________________________________


	BEGINNING GENETIC ALGORITHM DOCKING 43 of 100
Run: 43 Seed: 300005386 1222782446 [ Run 43 of 100 GA/GALS ]
Beginning LAMARCKIAN GENETIC ALGORITHM (LGA), with a maximum of 2500000 energy evaluations.

Final-Value: -12.799


	FINAL GENETIC ALGORITHM DOCKED STATE
	_______________________________________________


Detailed state:  trans 24.814 -18.678 -0.270 quatxyzw -0.132507 0.475116 -0.861271 -0.122146 center 0.359 0.163 0.443 ntor 9 162.5082 -157.8760 -161.4391 174.9487 17.4731 162.5075 -84.2031 54.2787 -8.9370
State:	 24.814 -18.678  -0.270  -0.134  0.479 -0.868 -165.968    162.51 -157.88 -161.44  174.95   17.47  162.51  -84.20   54.28   -8.94

DOCKED: MODEL       43
DOCKED: USER    Run = 43
DOCKED: USER    DPF = ligand_dock.biased.dpf
DOCKED: USER  
DOCKED: USER    Estimated Free Energy of Binding    =   -9.12 kcal/mol  [=(1)+(2)+(3)-(4)]
DOCKED: USER    Estimated Inhibition Constant, Ki   =  205.30 nM (nanomolar)  [Temperature = 298.15 K]
DOCKED: USER    
DOCKED: USER    (1) Final Intermolecular Energy     =  -11.81 kcal/mol
DOCKED: USER        vdW + Hbond + desolv Energy     =  -11.81 kcal/mol
DOCKED: USER        Electrostatic Energy            =   +0.00 kcal/mol
DOCKED: USER    (2) Final Total Internal Energy     =   -0.99 kcal/mol
DOCKED: USER    (3) Torsional Free Energy           =   +2.68 kcal/mol
DOCKED: USER    (4) Unbound System's Energy  [=(2)] =   -0.99 kcal/mol
DOCKED: USER    
DOCKED: USER    
DOCKED: USER    NEWDPF move ligand.pdbqt
DOCKED: USER    NEWDPF about 0.359000 0.163000 0.443000
DOCKED: USER    NEWDPF tran0 24.814483 -18.677503 -0.269708
DOCKED: USER    NEWDPF quaternion0 -0.132507 0.475116 -0.861271 -0.122146
DOCKED: USER    NEWDPF axisangle0 -0.133507 0.478700 -0.867768 -165.968108
DOCKED: USER    NEWDPF quat0 -0.133507 0.478700 -0.867768 -165.968108
DOCKED: USER    NEWDPF dihe0 162.51 -157.88 -161.44 174.95 17.47 162.51 -84.20 54.28 -8.94 
DOCKED: USER  keepresnum = 1 
DOCKED: USER  
DOCKED: REMARK  Name = 
DOCKED: REMARK  9 active torsions:
DOCKED: REMARK  status: ('A' for Active; 'I' for Inactive)
DOCKED: REMARK    1  A    between atoms: O_1  and  N_2
DOCKED: REMARK    2  A    between atoms: C_3  and  C_4
DOCKED: REMARK    3  A    between atoms: C_4  and  C_5
DOCKED: REMARK    4  A    between atoms: C_5  and  C_6
DOCKED: REMARK    5  A    between atoms: C_6  and  C_7
DOCKED: REMARK    6  A    between atoms: C_7  and  C_8
DOCKED: REMARK    7  A    between atoms: C_8  and  C_9
DOCKED: REMARK    8  A    between atoms: C_9  and  C_10
DOCKED: REMARK    9  A    between atoms: N_11  and  O_12
DOCKED: REMARK                            x       y       z     vdW  Elec       q    Type
DOCKED: REMARK                         _______ _______ _______ _____ _____    ______ ____
DOCKED: USER                              x       y       z     vdW  Elec       q    Type
DOCKED: USER                           _______ _______ _______ _____ _____    ______ ____
DOCKED: ROOT
DOCKED: ATOM      1  C   UNL     1      24.830 -17.880  -0.789 -0.73 -0.00    +0.000 C 
DOCKED: ENDROOT
DOCKED: BRANCH   1   2
DOCKED: ATOM      2  C   UNL     1      23.537 -18.301  -0.079 -0.75 -0.00    +0.000 C 
DOCKED: BRANCH   2   3
DOCKED: ATOM      3  C   UNL     1      22.487 -18.776  -1.087 -0.82 -0.00    +0.000 C 
DOCKED: BRANCH   3   5
DOCKED: ATOM      4  N   UNL     1      20.735 -19.826   0.423 -0.66 -0.00    +0.000 N 
DOCKED: ATOM      5  C   UNL     1      21.123 -18.774  -0.464 -0.82 -0.00    +0.000 C 
DOCKED: ATOM      6  O   UNL     1      20.304 -17.862  -0.756 -2.22 -0.00    +0.000 OA
DOCKED: ATOM      7  H   UNL     1      21.365 -20.556   0.620 -0.59 -0.00    +0.000 HD
DOCKED: BRANCH   4   8
DOCKED: ATOM      8  O   UNL     1      19.506 -19.828   0.992 -0.77 -0.00    +0.000 OA
DOCKED: ATOM      9  H   UNL     1      19.120 -18.940   0.930 -0.30 -0.00    +0.000 HD
DOCKED: ENDBRANCH   4   8
DOCKED: ENDBRANCH   3   5
DOCKED: ENDBRANCH   2   3
DOCKED: ENDBRANCH   1   2
DOCKED: BRANCH   1  10
DOCKED: ATOM     10  C   UNL     1      24.871 -16.360  -1.004 -0.55 -0.00    +0.000 C 
DOCKED: BRANCH  10  11
DOCKED: ATOM     11  C   UNL     1      26.154 -15.885  -1.712 -0.48 -0.00    +0.000 C 
DOCKED: BRANCH  11  12
DOCKED: ATOM     12  C   UNL     1      27.333 -16.868  -1.596 -0.41 -0.00    +0.000 C 
DOCKED: BRANCH  12  13
DOCKED: ATOM     13  C   UNL     1      28.492 -16.294  -0.831 -0.30 -0.00    +0.000 C 
DOCKED: ATOM     14  N   UNL     1      28.298 -15.747   0.477 -0.19 -0.00    +0.000 N 
DOCKED: ATOM     15  O   UNL     1      29.637 -16.270  -1.357 -0.19 -0.00    +0.000 OA
DOCKED: ATOM     16  H   UNL     1      27.398 -15.745   0.876 -0.13 -0.00    +0.000 HD
DOCKED: BRANCH  14  17
DOCKED: ATOM     17  O   UNL     1      29.343 -15.234   1.169 -0.13 -0.00    +0.000 OA
DOCKED: ATOM     18  H   UNL     1      29.133 -15.235   2.117 -1.79 -0.00    +0.000 HD
DOCKED: ENDBRANCH  14  17
DOCKED: ENDBRANCH  12  13
DOCKED: ENDBRANCH  11  12
DOCKED: ENDBRANCH  10  11
DOCKED: ENDBRANCH   1  10
DOCKED: TORSDOF 9
DOCKED: TER
DOCKED: ENDMDL
________________________________________________________________________________


	BEGINNING GENETIC ALGORITHM DOCKING 44 of 100
Run: 44 Seed: 1912855435 1016023742 [ Run 44 of 100 GA/GALS ]
Beginning LAMARCKIAN GENETIC ALGORITHM (LGA), with a maximum of 2500000 energy evaluations.

Final-Value: -13.371


	FINAL GENETIC ALGORITHM DOCKED STATE
	_______________________________________________


Detailed state:  trans 24.913 -15.778 -0.682 quatxyzw -0.087845 0.291503 0.523435 -0.795817 center 0.359 0.163 0.443 ntor 9 179.7570 -8.5870 -28.3621 -178.7760 -32.9337 4.4497 156.8345 112.6178 -28.8233
State:	 24.913 -15.778  -0.682  -0.145  0.481  0.864 -74.535    179.76   -8.59  -28.36 -178.78  -32.93    4.45  156.83  112.62  -28.82

DOCKED: MODEL       44
DOCKED: USER    Run = 44
DOCKED: USER    DPF = ligand_dock.biased.dpf
DOCKED: USER  
DOCKED: USER    Estimated Free Energy of Binding    =   -9.08 kcal/mol  [=(1)+(2)+(3)-(4)]
DOCKED: USER    Estimated Inhibition Constant, Ki   =  222.10 nM (nanomolar)  [Temperature = 298.15 K]
DOCKED: USER    
DOCKED: USER    (1) Final Intermolecular Energy     =  -11.76 kcal/mol
DOCKED: USER        vdW + Hbond + desolv Energy     =  -11.76 kcal/mol
DOCKED: USER        Electrostatic Energy            =   +0.00 kcal/mol
DOCKED: USER    (2) Final Total Internal Energy     =   -1.61 kcal/mol
DOCKED: USER    (3) Torsional Free Energy           =   +2.68 kcal/mol
DOCKED: USER    (4) Unbound System's Energy  [=(2)] =   -1.61 kcal/mol
DOCKED: USER    
DOCKED: USER    
DOCKED: USER    NEWDPF move ligand.pdbqt
DOCKED: USER    NEWDPF about 0.359000 0.163000 0.443000
DOCKED: USER    NEWDPF tran0 24.912658 -15.778056 -0.682372
DOCKED: USER    NEWDPF quaternion0 -0.087845 0.291503 0.523435 -0.795817
DOCKED: USER    NEWDPF axisangle0 -0.145069 0.481396 0.864415 -74.535030
DOCKED: USER    NEWDPF quat0 -0.145069 0.481396 0.864415 -74.535030
DOCKED: USER    NEWDPF dihe0 179.76 -8.59 -28.36 -178.78 -32.93 4.45 156.83 112.62 -28.82 
DOCKED: USER  keepresnum = 1 
DOCKED: USER  
DOCKED: REMARK  Name = 
DOCKED: REMARK  9 active torsions:
DOCKED: REMARK  status: ('A' for Active; 'I' for Inactive)
DOCKED: REMARK    1  A    between atoms: O_1  and  N_2
DOCKED: REMARK    2  A    between atoms: C_3  and  C_4
DOCKED: REMARK    3  A    between atoms: C_4  and  C_5
DOCKED: REMARK    4  A    between atoms: C_5  and  C_6
DOCKED: REMARK    5  A    between atoms: C_6  and  C_7
DOCKED: REMARK    6  A    between atoms: C_7  and  C_8
DOCKED: REMARK    7  A    between atoms: C_8  and  C_9
DOCKED: REMARK    8  A    between atoms: C_9  and  C_10
DOCKED: REMARK    9  A    between atoms: N_11  and  O_12
DOCKED: REMARK                            x       y       z     vdW  Elec       q    Type
DOCKED: REMARK                         _______ _______ _______ _____ _____    ______ ____
DOCKED: USER                              x       y       z     vdW  Elec       q    Type
DOCKED: USER                           _______ _______ _______ _____ _____    ______ ____
DOCKED: ROOT
DOCKED: ATOM      1  C   UNL     1      24.460 -16.427  -1.211 -0.52 -0.00    +0.000 C 
DOCKED: ENDROOT
DOCKED: BRANCH   1   2
DOCKED: ATOM      2  C   UNL     1      25.395 -15.414  -1.885 -0.42 -0.00    +0.000 C 
DOCKED: BRANCH   2   3
DOCKED: ATOM      3  C   UNL     1      26.355 -16.111  -2.853 -0.42 -0.00    +0.000 C 
DOCKED: BRANCH   3   5
DOCKED: ATOM      4  N   UNL     1      27.192 -13.906  -3.795 -0.25 -0.00    +0.000 N 
DOCKED: ATOM      5  C   UNL     1      26.669 -15.218  -4.015 -0.51 -0.00    +0.000 C 
DOCKED: ATOM      6  O   UNL     1      26.432 -15.613  -5.188 -1.18 +0.00    +0.000 OA
DOCKED: ATOM      7  H   UNL     1      27.342 -13.588  -2.875 +0.00 -0.00    +0.000 HD
DOCKED: BRANCH   4   8
DOCKED: ATOM      8  O   UNL     1      27.481 -13.095  -4.841 -0.25 -0.00    +0.000 OA
DOCKED: ATOM      9  H   UNL     1      27.281 -13.556  -5.671 -0.02 -0.00    +0.000 HD
DOCKED: ENDBRANCH   4   8
DOCKED: ENDBRANCH   3   5
DOCKED: ENDBRANCH   2   3
DOCKED: ENDBRANCH   1   2
DOCKED: BRANCH   1  10
DOCKED: ATOM     10  C   UNL     1      24.350 -17.713  -2.043 -0.52 -0.00    +0.000 C 
DOCKED: BRANCH  10  11
DOCKED: ATOM     11  C   UNL     1      23.852 -18.920  -1.227 -0.70 -0.00    +0.000 C 
DOCKED: BRANCH  11  12
DOCKED: ATOM     12  C   UNL     1      22.789 -18.566  -0.172 -0.80 -0.00    +0.000 C 
DOCKED: BRANCH  12  13
DOCKED: ATOM     13  C   UNL     1      21.396 -18.558  -0.735 -0.86 -0.00    +0.000 C 
DOCKED: ATOM     14  N   UNL     1      20.844 -19.739  -1.325 -0.78 -0.00    +0.000 N 
DOCKED: ATOM     15  O   UNL     1      20.718 -17.495  -0.711 -2.09 +0.00    +0.000 OA
DOCKED: ATOM     16  H   UNL     1      21.384 -20.562  -1.365 -0.20 -0.00    +0.000 HD
DOCKED: BRANCH  14  17
DOCKED: ATOM     17  O   UNL     1      19.587 -19.734  -1.828 -1.72 -0.00    +0.000 OA
DOCKED: ATOM     18  H   UNL     1      19.148 -18.902  -1.592 -0.54 -0.00    +0.000 HD
DOCKED: ENDBRANCH  14  17
DOCKED: ENDBRANCH  12  13
DOCKED: ENDBRANCH  11  12
DOCKED: ENDBRANCH  10  11
DOCKED: ENDBRANCH   1  10
DOCKED: TORSDOF 9
DOCKED: TER
DOCKED: ENDMDL
________________________________________________________________________________


	BEGINNING GENETIC ALGORITHM DOCKING 45 of 100
Run: 45 Seed: 789678080 2130242037 [ Run 45 of 100 GA/GALS ]
Beginning LAMARCKIAN GENETIC ALGORITHM (LGA), with a maximum of 2500000 energy evaluations.

Final-Value: -13.337


	FINAL GENETIC ALGORITHM DOCKED STATE
	_______________________________________________


Detailed state:  trans 23.781 -18.331 -2.310 quatxyzw 0.385106 -0.842909 0.292900 -0.235387 center 0.359 0.163 0.443 ntor 9 178.2270 -4.4682 -52.5351 18.2742 -86.2729 -162.4348 -93.2800 -127.4744 -150.0231
State:	 23.781 -18.331  -2.310   0.396 -0.867  0.301 -152.771    178.23   -4.47  -52.54   18.27  -86.27 -162.43  -93.28 -127.47 -150.02

DOCKED: MODEL       45
DOCKED: USER    Run = 45
DOCKED: USER    DPF = ligand_dock.biased.dpf
DOCKED: USER  
DOCKED: USER    Estimated Free Energy of Binding    =   -9.06 kcal/mol  [=(1)+(2)+(3)-(4)]
DOCKED: USER    Estimated Inhibition Constant, Ki   =  228.80 nM (nanomolar)  [Temperature = 298.15 K]
DOCKED: USER    
DOCKED: USER    (1) Final Intermolecular Energy     =  -11.74 kcal/mol
DOCKED: USER        vdW + Hbond + desolv Energy     =  -11.74 kcal/mol
DOCKED: USER        Electrostatic Energy            =   +0.00 kcal/mol
DOCKED: USER    (2) Final Total Internal Energy     =   -1.59 kcal/mol
DOCKED: USER    (3) Torsional Free Energy           =   +2.68 kcal/mol
DOCKED: USER    (4) Unbound System's Energy  [=(2)] =   -1.59 kcal/mol
DOCKED: USER    
DOCKED: USER    
DOCKED: USER    NEWDPF move ligand.pdbqt
DOCKED: USER    NEWDPF about 0.359000 0.163000 0.443000
DOCKED: USER    NEWDPF tran0 23.780677 -18.330602 -2.310134
DOCKED: USER    NEWDPF quaternion0 0.385106 -0.842909 0.292900 -0.235387
DOCKED: USER    NEWDPF axisangle0 0.396240 -0.867278 0.301368 -152.771113
DOCKED: USER    NEWDPF quat0 0.396240 -0.867278 0.301368 -152.771113
DOCKED: USER    NEWDPF dihe0 178.23 -4.47 -52.54 18.27 -86.27 -162.43 -93.28 -127.47 -150.02 
DOCKED: USER  keepresnum = 1 
DOCKED: USER  
DOCKED: REMARK  Name = 
DOCKED: REMARK  9 active torsions:
DOCKED: REMARK  status: ('A' for Active; 'I' for Inactive)
DOCKED: REMARK    1  A    between atoms: O_1  and  N_2
DOCKED: REMARK    2  A    between atoms: C_3  and  C_4
DOCKED: REMARK    3  A    between atoms: C_4  and  C_5
DOCKED: REMARK    4  A    between atoms: C_5  and  C_6
DOCKED: REMARK    5  A    between atoms: C_6  and  C_7
DOCKED: REMARK    6  A    between atoms: C_7  and  C_8
DOCKED: REMARK    7  A    between atoms: C_8  and  C_9
DOCKED: REMARK    8  A    between atoms: C_9  and  C_10
DOCKED: REMARK    9  A    between atoms: N_11  and  O_12
DOCKED: REMARK                            x       y       z     vdW  Elec       q    Type
DOCKED: REMARK                         _______ _______ _______ _____ _____    ______ ____
DOCKED: USER                              x       y       z     vdW  Elec       q    Type
DOCKED: USER                           _______ _______ _______ _____ _____    ______ ____
DOCKED: ROOT
DOCKED: ATOM      1  C   UNL     1      24.112 -17.541  -1.894 -0.54 -0.00    +0.000 C 
DOCKED: ENDROOT
DOCKED: BRANCH   1   2
DOCKED: ATOM      2  C   UNL     1      23.611 -18.705  -1.029 -0.81 -0.00    +0.000 C 
DOCKED: BRANCH   2   3
DOCKED: ATOM      3  C   UNL     1      22.417 -18.277  -0.171 -0.82 -0.00    +0.000 C 
DOCKED: BRANCH   3   5
DOCKED: ATOM      4  N   UNL     1      21.047 -19.737  -1.734 -0.67 -0.00    +0.000 N 
DOCKED: ATOM      5  C   UNL     1      21.129 -18.605  -0.864 -0.83 -0.00    +0.000 C 
DOCKED: ATOM      6  O   UNL     1      20.127 -17.856  -0.710 -2.08 +0.00    +0.000 OA
DOCKED: ATOM      7  H   UNL     1      21.842 -20.299  -1.880 -0.46 -0.00    +0.000 HD
DOCKED: BRANCH   4   8
DOCKED: ATOM      8  O   UNL     1      19.885 -20.042  -2.360 -1.74 -0.00    +0.000 OA
DOCKED: ATOM      9  H   UNL     1      19.198 -19.412  -2.090 -0.47 -0.00    +0.000 HD
DOCKED: ENDBRANCH   4   8
DOCKED: ENDBRANCH   3   5
DOCKED: ENDBRANCH   2   3
DOCKED: ENDBRANCH   1   2
DOCKED: BRANCH   1  10
DOCKED: ATOM     10  C   UNL     1      25.146 -16.696  -1.137 -0.62 -0.00    +0.000 C 
DOCKED: BRANCH  10  11
DOCKED: ATOM     11  C   UNL     1      26.104 -17.541  -0.277 -0.61 -0.00    +0.000 C 
DOCKED: BRANCH  11  12
DOCKED: ATOM     12  C   UNL     1      27.446 -16.851   0.025 -0.37 -0.00    +0.000 C 
DOCKED: BRANCH  12  13
DOCKED: ATOM     13  C   UNL     1      28.424 -16.965  -1.110 -0.34 -0.00    +0.000 C 
DOCKED: ATOM     14  N   UNL     1      29.507 -17.897  -1.043 -0.27 -0.00    +0.000 N 
DOCKED: ATOM     15  O   UNL     1      28.304 -16.216  -2.116 -0.29 -0.00    +0.000 OA
DOCKED: ATOM     16  H   UNL     1      29.614 -18.465  -0.246 -0.59 -0.00    +0.000 HD
DOCKED: BRANCH  14  17
DOCKED: ATOM     17  O   UNL     1      30.387 -18.005  -2.067 -0.23 -0.00    +0.000 OA
DOCKED: ATOM     18  H   UNL     1      30.104 -17.433  -2.797 -0.01 -0.00    +0.000 HD
DOCKED: ENDBRANCH  14  17
DOCKED: ENDBRANCH  12  13
DOCKED: ENDBRANCH  11  12
DOCKED: ENDBRANCH  10  11
DOCKED: ENDBRANCH   1  10
DOCKED: TORSDOF 9
DOCKED: TER
DOCKED: ENDMDL
________________________________________________________________________________


	BEGINNING GENETIC ALGORITHM DOCKING 46 of 100
Run: 46 Seed: 792195691 256332845 [ Run 46 of 100 GA/GALS ]
Beginning LAMARCKIAN GENETIC ALGORITHM (LGA), with a maximum of 2500000 energy evaluations.

Final-Value: -14.102


	FINAL GENETIC ALGORITHM DOCKED STATE
	_______________________________________________


Detailed state:  trans 25.681 -16.710 -3.032 quatxyzw -0.917758 -0.387398 -0.014733 -0.086172 center 0.359 0.163 0.443 ntor 9 -177.6668 1.2490 -160.7759 -146.8252 95.6497 130.6959 59.9380 -140.6079 -86.7769
State:	 25.681 -16.710  -3.032  -0.921 -0.389 -0.015 -170.113   -177.67    1.25 -160.78 -146.83   95.65  130.70   59.94 -140.61  -86.78

DOCKED: MODEL       46
DOCKED: USER    Run = 46
DOCKED: USER    DPF = ligand_dock.biased.dpf
DOCKED: USER  
DOCKED: USER    Estimated Free Energy of Binding    =   -9.90 kcal/mol  [=(1)+(2)+(3)-(4)]
DOCKED: USER    Estimated Inhibition Constant, Ki   =   55.11 nM (nanomolar)  [Temperature = 298.15 K]
DOCKED: USER    
DOCKED: USER    (1) Final Intermolecular Energy     =  -12.59 kcal/mol
DOCKED: USER        vdW + Hbond + desolv Energy     =  -12.59 kcal/mol
DOCKED: USER        Electrostatic Energy            =   +0.00 kcal/mol
DOCKED: USER    (2) Final Total Internal Energy     =   -1.51 kcal/mol
DOCKED: USER    (3) Torsional Free Energy           =   +2.68 kcal/mol
DOCKED: USER    (4) Unbound System's Energy  [=(2)] =   -1.51 kcal/mol
DOCKED: USER    
DOCKED: USER    
DOCKED: USER    NEWDPF move ligand.pdbqt
DOCKED: USER    NEWDPF about 0.359000 0.163000 0.443000
DOCKED: USER    NEWDPF tran0 25.680925 -16.709549 -3.032434
DOCKED: USER    NEWDPF quaternion0 -0.917758 -0.387398 -0.014733 -0.086172
DOCKED: USER    NEWDPF axisangle0 -0.921185 -0.388845 -0.014788 -170.113152
DOCKED: USER    NEWDPF quat0 -0.921185 -0.388845 -0.014788 -170.113152
DOCKED: USER    NEWDPF dihe0 -177.67 1.25 -160.78 -146.83 95.65 130.70 59.94 -140.61 -86.78 
DOCKED: USER  keepresnum = 1 
DOCKED: USER  
DOCKED: REMARK  Name = 
DOCKED: REMARK  9 active torsions:
DOCKED: REMARK  status: ('A' for Active; 'I' for Inactive)
DOCKED: REMARK    1  A    between atoms: O_1  and  N_2
DOCKED: REMARK    2  A    between atoms: C_3  and  C_4
DOCKED: REMARK    3  A    between atoms: C_4  and  C_5
DOCKED: REMARK    4  A    between atoms: C_5  and  C_6
DOCKED: REMARK    5  A    between atoms: C_6  and  C_7
DOCKED: REMARK    6  A    between atoms: C_7  and  C_8
DOCKED: REMARK    7  A    between atoms: C_8  and  C_9
DOCKED: REMARK    8  A    between atoms: C_9  and  C_10
DOCKED: REMARK    9  A    between atoms: N_11  and  O_12
DOCKED: REMARK                            x       y       z     vdW  Elec       q    Type
DOCKED: REMARK                         _______ _______ _______ _____ _____    ______ ____
DOCKED: USER                              x       y       z     vdW  Elec       q    Type
DOCKED: USER                           _______ _______ _______ _____ _____    ______ ____
DOCKED: ROOT
DOCKED: ATOM      1  C   UNL     1      25.498 -17.122  -2.194 -0.53 -0.00    +0.000 C 
DOCKED: ENDROOT
DOCKED: BRANCH   1   2
DOCKED: ATOM      2  C   UNL     1      26.135 -15.727  -2.234 -0.48 -0.00    +0.000 C 
DOCKED: BRANCH   2   3
DOCKED: ATOM      3  C   UNL     1      25.598 -14.911  -3.413 -0.55 -0.00    +0.000 C 
DOCKED: BRANCH   3   5
DOCKED: ATOM      4  N   UNL     1      27.662 -14.687  -4.876 -0.36 -0.00    +0.000 N 
DOCKED: ATOM      5  C   UNL     1      26.358 -15.233  -4.664 -0.57 -0.00    +0.000 C 
DOCKED: ATOM      6  O   UNL     1      25.827 -15.957  -5.549 -1.11 +0.00    +0.000 OA
DOCKED: ATOM      7  H   UNL     1      28.059 -14.094  -4.198 +0.00 -0.00    +0.000 HD
DOCKED: BRANCH   4   8
DOCKED: ATOM      8  O   UNL     1      28.356 -14.978  -6.002 -0.58 -0.00    +0.000 OA
DOCKED: ATOM      9  H   UNL     1      27.814 -15.540  -6.579 -0.06 +0.00    +0.000 HD
DOCKED: ENDBRANCH   4   8
DOCKED: ENDBRANCH   3   5
DOCKED: ENDBRANCH   2   3
DOCKED: ENDBRANCH   1   2
DOCKED: BRANCH   1  10
DOCKED: ATOM     10  C   UNL     1      24.719 -17.336  -0.889 -0.69 -0.00    +0.000 C 
DOCKED: BRANCH  10  11
DOCKED: ATOM     11  C   UNL     1      23.197 -17.186  -1.062 -0.67 -0.00    +0.000 C 
DOCKED: BRANCH  11  12
DOCKED: ATOM     12  C   UNL     1      22.371 -18.160  -0.203 -0.82 -0.00    +0.000 C 
DOCKED: BRANCH  12  13
DOCKED: ATOM     13  C   UNL     1      21.084 -18.566  -0.864 -0.82 -0.00    +0.000 C 
DOCKED: ATOM     14  N   UNL     1      21.028 -19.737  -1.686 -0.69 -0.00    +0.000 N 
DOCKED: ATOM     15  O   UNL     1      20.053 -17.856  -0.715 -2.01 -0.00    +0.000 OA
DOCKED: ATOM     16  H   UNL     1      21.840 -20.277  -1.821 -0.45 -0.00    +0.000 HD
DOCKED: BRANCH  14  17
DOCKED: ATOM     17  O   UNL     1      19.868 -20.107  -2.279 -1.75 -0.00    +0.000 OA
DOCKED: ATOM     18  H   UNL     1      19.176 -19.463  -2.062 -0.48 -0.00    +0.000 HD
DOCKED: ENDBRANCH  14  17
DOCKED: ENDBRANCH  12  13
DOCKED: ENDBRANCH  11  12
DOCKED: ENDBRANCH  10  11
DOCKED: ENDBRANCH   1  10
DOCKED: TORSDOF 9
DOCKED: TER
DOCKED: ENDMDL
________________________________________________________________________________


	BEGINNING GENETIC ALGORITHM DOCKING 47 of 100
Run: 47 Seed: 532459140 1209810816 [ Run 47 of 100 GA/GALS ]
Beginning LAMARCKIAN GENETIC ALGORITHM (LGA), with a maximum of 2500000 energy evaluations.

Final-Value: -14.133


	FINAL GENETIC ALGORITHM DOCKED STATE
	_______________________________________________


Detailed state:  trans 26.413 -16.574 -1.263 quatxyzw -0.645700 -0.659203 -0.366865 0.118039 center 0.359 0.163 0.443 ntor 9 180.0000 -5.5481 178.9355 -179.6138 122.9150 149.9457 -13.7982 -75.4369 -160.6701
State:	 26.413 -16.574  -1.263  -0.650 -0.664 -0.369 166.442    180.00   -5.55  178.94 -179.61  122.91  149.95  -13.80  -75.44 -160.67

DOCKED: MODEL       47
DOCKED: USER    Run = 47
DOCKED: USER    DPF = ligand_dock.biased.dpf
DOCKED: USER  
DOCKED: USER    Estimated Free Energy of Binding    =   -9.90 kcal/mol  [=(1)+(2)+(3)-(4)]
DOCKED: USER    Estimated Inhibition Constant, Ki   =   55.37 nM (nanomolar)  [Temperature = 298.15 K]
DOCKED: USER    
DOCKED: USER    (1) Final Intermolecular Energy     =  -12.58 kcal/mol
DOCKED: USER        vdW + Hbond + desolv Energy     =  -12.58 kcal/mol
DOCKED: USER        Electrostatic Energy            =   +0.00 kcal/mol
DOCKED: USER    (2) Final Total Internal Energy     =   -1.55 kcal/mol
DOCKED: USER    (3) Torsional Free Energy           =   +2.68 kcal/mol
DOCKED: USER    (4) Unbound System's Energy  [=(2)] =   -1.55 kcal/mol
DOCKED: USER    
DOCKED: USER    
DOCKED: USER    NEWDPF move ligand.pdbqt
DOCKED: USER    NEWDPF about 0.359000 0.163000 0.443000
DOCKED: USER    NEWDPF tran0 26.413176 -16.573834 -1.262999
DOCKED: USER    NEWDPF quaternion0 -0.645700 -0.659203 -0.366865 0.118039
DOCKED: USER    NEWDPF axisangle0 -0.650246 -0.663844 -0.369448 166.442113
DOCKED: USER    NEWDPF quat0 -0.650246 -0.663844 -0.369448 166.442113
DOCKED: USER    NEWDPF dihe0 180.00 -5.55 178.94 -179.61 122.91 149.95 -13.80 -75.44 -160.67 
DOCKED: USER  keepresnum = 1 
DOCKED: USER  
DOCKED: REMARK  Name = 
DOCKED: REMARK  9 active torsions:
DOCKED: REMARK  status: ('A' for Active; 'I' for Inactive)
DOCKED: REMARK    1  A    between atoms: O_1  and  N_2
DOCKED: REMARK    2  A    between atoms: C_3  and  C_4
DOCKED: REMARK    3  A    between atoms: C_4  and  C_5
DOCKED: REMARK    4  A    between atoms: C_5  and  C_6
DOCKED: REMARK    5  A    between atoms: C_6  and  C_7
DOCKED: REMARK    6  A    between atoms: C_7  and  C_8
DOCKED: REMARK    7  A    between atoms: C_8  and  C_9
DOCKED: REMARK    8  A    between atoms: C_9  and  C_10
DOCKED: REMARK    9  A    between atoms: N_11  and  O_12
DOCKED: REMARK                            x       y       z     vdW  Elec       q    Type
DOCKED: REMARK                         _______ _______ _______ _____ _____    ______ ____
DOCKED: USER                              x       y       z     vdW  Elec       q    Type
DOCKED: USER                           _______ _______ _______ _____ _____    ______ ____
DOCKED: ROOT
DOCKED: ATOM      1  C   UNL     1      25.924 -17.191  -0.729 -0.61 -0.00    +0.000 C 
DOCKED: ENDROOT
DOCKED: BRANCH   1   2
DOCKED: ATOM      2  C   UNL     1      25.505 -15.716  -0.764 -0.42 -0.00    +0.000 C 
DOCKED: BRANCH   2   3
DOCKED: ATOM      3  C   UNL     1      26.730 -14.797  -0.792 -0.33 -0.00    +0.000 C 
DOCKED: BRANCH   3   5
DOCKED: ATOM      4  N   UNL     1      27.529 -14.245   1.555 -0.29 -0.00    +0.000 N 
DOCKED: ATOM      5  C   UNL     1      27.615 -15.067   0.388 -0.30 -0.00    +0.000 C 
DOCKED: ATOM      6  O   UNL     1      28.463 -15.997   0.334 -0.27 -0.00    +0.000 OA
DOCKED: ATOM      7  H   UNL     1      26.890 -13.497   1.579 -0.01 -0.00    +0.000 HD
DOCKED: BRANCH   4   8
DOCKED: ATOM      8  O   UNL     1      28.322 -14.485   2.626 -0.36 -0.00    +0.000 OA
DOCKED: ATOM      9  H   UNL     1      28.891 -15.250   2.441 -1.93 -0.00    +0.000 HD
DOCKED: ENDBRANCH   4   8
DOCKED: ENDBRANCH   3   5
DOCKED: ENDBRANCH   2   3
DOCKED: ENDBRANCH   1   2
DOCKED: BRANCH   1  10
DOCKED: ATOM     10  C   UNL     1      24.731 -18.095  -0.386 -0.73 -0.00    +0.000 C 
DOCKED: BRANCH  10  11
DOCKED: ATOM     11  C   UNL     1      23.379 -17.503  -0.825 -0.76 -0.00    +0.000 C 
DOCKED: BRANCH  11  12
DOCKED: ATOM     12  C   UNL     1      22.190 -17.949   0.045 -0.74 -0.00    +0.000 C 
DOCKED: BRANCH  12  13
DOCKED: ATOM     13  C   UNL     1      21.049 -18.491  -0.769 -0.80 -0.00    +0.000 C 
DOCKED: ATOM     14  N   UNL     1      21.242 -19.618  -1.629 -0.63 -0.00    +0.000 N 
DOCKED: ATOM     15  O   UNL     1      19.920 -17.932  -0.713 -1.90 -0.00    +0.000 OA
DOCKED: ATOM     16  H   UNL     1      22.130 -20.038  -1.690 -0.42 -0.00    +0.000 HD
DOCKED: BRANCH  14  17
DOCKED: ATOM     17  O   UNL     1      20.214 -20.110  -2.360 -1.77 -0.00    +0.000 OA
DOCKED: ATOM     18  H   UNL     1      19.397 -19.645  -2.122 -0.32 -0.00    +0.000 HD
DOCKED: ENDBRANCH  14  17
DOCKED: ENDBRANCH  12  13
DOCKED: ENDBRANCH  11  12
DOCKED: ENDBRANCH  10  11
DOCKED: ENDBRANCH   1  10
DOCKED: TORSDOF 9
DOCKED: TER
DOCKED: ENDMDL
________________________________________________________________________________


	BEGINNING GENETIC ALGORITHM DOCKING 48 of 100
Run: 48 Seed: 1540495604 754908661 [ Run 48 of 100 GA/GALS ]
Beginning LAMARCKIAN GENETIC ALGORITHM (LGA), with a maximum of 2500000 energy evaluations.

Final-Value: -13.993


	FINAL GENETIC ALGORITHM DOCKED STATE
	_______________________________________________


Detailed state:  trans 26.233 -15.727 -1.758 quatxyzw 0.588121 0.652412 0.423673 0.221299 center 0.359 0.163 0.443 ntor 9 179.3018 9.0260 153.6661 -179.8114 106.8059 116.7080 -20.6045 -26.3838 -135.2819
State:	 26.233 -15.727  -1.758   0.603  0.669  0.434 154.429    179.30    9.03  153.67 -179.81  106.81  116.71  -20.60  -26.38 -135.28

DOCKED: MODEL       48
DOCKED: USER    Run = 48
DOCKED: USER    DPF = ligand_dock.biased.dpf
DOCKED: USER  
DOCKED: USER    Estimated Free Energy of Binding    =   -9.78 kcal/mol  [=(1)+(2)+(3)-(4)]
DOCKED: USER    Estimated Inhibition Constant, Ki   =   68.03 nM (nanomolar)  [Temperature = 298.15 K]
DOCKED: USER    
DOCKED: USER    (1) Final Intermolecular Energy     =  -12.46 kcal/mol
DOCKED: USER        vdW + Hbond + desolv Energy     =  -12.46 kcal/mol
DOCKED: USER        Electrostatic Energy            =   +0.00 kcal/mol
DOCKED: USER    (2) Final Total Internal Energy     =   -1.53 kcal/mol
DOCKED: USER    (3) Torsional Free Energy           =   +2.68 kcal/mol
DOCKED: USER    (4) Unbound System's Energy  [=(2)] =   -1.53 kcal/mol
DOCKED: USER    
DOCKED: USER    
DOCKED: USER    NEWDPF move ligand.pdbqt
DOCKED: USER    NEWDPF about 0.359000 0.163000 0.443000
DOCKED: USER    NEWDPF tran0 26.232829 -15.726667 -1.758052
DOCKED: USER    NEWDPF quaternion0 0.588121 0.652412 0.423673 0.221299
DOCKED: USER    NEWDPF axisangle0 0.603074 0.668999 0.434445 154.429268
DOCKED: USER    NEWDPF quat0 0.603074 0.668999 0.434445 154.429268
DOCKED: USER    NEWDPF dihe0 179.30 9.03 153.67 -179.81 106.81 116.71 -20.60 -26.38 -135.28 
DOCKED: USER  keepresnum = 1 
DOCKED: USER  
DOCKED: REMARK  Name = 
DOCKED: REMARK  9 active torsions:
DOCKED: REMARK  status: ('A' for Active; 'I' for Inactive)
DOCKED: REMARK    1  A    between atoms: O_1  and  N_2
DOCKED: REMARK    2  A    between atoms: C_3  and  C_4
DOCKED: REMARK    3  A    between atoms: C_4  and  C_5
DOCKED: REMARK    4  A    between atoms: C_5  and  C_6
DOCKED: REMARK    5  A    between atoms: C_6  and  C_7
DOCKED: REMARK    6  A    between atoms: C_7  and  C_8
DOCKED: REMARK    7  A    between atoms: C_8  and  C_9
DOCKED: REMARK    8  A    between atoms: C_9  and  C_10
DOCKED: REMARK    9  A    between atoms: N_11  and  O_12
DOCKED: REMARK                            x       y       z     vdW  Elec       q    Type
DOCKED: REMARK                         _______ _______ _______ _____ _____    ______ ____
DOCKED: USER                              x       y       z     vdW  Elec       q    Type
DOCKED: USER                           _______ _______ _______ _____ _____    ______ ____
DOCKED: ROOT
DOCKED: ATOM      1  C   UNL     1      26.146 -16.648  -1.536 -0.53 -0.00    +0.000 C 
DOCKED: ENDROOT
DOCKED: BRANCH   1   2
DOCKED: ATOM      2  C   UNL     1      25.425 -15.590  -0.691 -0.34 -0.00    +0.000 C 
DOCKED: BRANCH   2   3
DOCKED: ATOM      3  C   UNL     1      26.357 -14.419  -0.365 -0.34 -0.00    +0.000 C 
DOCKED: BRANCH   3   5
DOCKED: ATOM      4  N   UNL     1      27.484 -14.108   1.890 -0.31 -0.00    +0.000 N 
DOCKED: ATOM      5  C   UNL     1      27.374 -14.827   0.658 -0.29 -0.00    +0.000 C 
DOCKED: ATOM      6  O   UNL     1      28.160 -15.781   0.413 -0.32 -0.00    +0.000 OA
DOCKED: ATOM      7  H   UNL     1      26.893 -13.341   2.062 -0.02 -0.00    +0.000 HD
DOCKED: BRANCH   4   8
DOCKED: ATOM      8  O   UNL     1      28.398 -14.474   2.821 -0.37 -0.00    +0.000 OA
DOCKED: ATOM      9  H   UNL     1      28.890 -15.248   2.503 -1.94 -0.00    +0.000 HD
DOCKED: ENDBRANCH   4   8
DOCKED: ENDBRANCH   3   5
DOCKED: ENDBRANCH   2   3
DOCKED: ENDBRANCH   1   2
DOCKED: BRANCH   1  10
DOCKED: ATOM     10  C   UNL     1      25.422 -18.000  -1.462 -0.42 -0.00    +0.000 C 
DOCKED: BRANCH  10  11
DOCKED: ATOM     11  C   UNL     1      23.928 -17.906  -1.822 -0.63 -0.00    +0.000 C 
DOCKED: BRANCH  11  12
DOCKED: ATOM     12  C   UNL     1      22.989 -17.928  -0.604 -0.81 -0.00    +0.000 C 
DOCKED: BRANCH  12  13
DOCKED: ATOM     13  C   UNL     1      21.573 -18.271  -0.970 -0.75 -0.00    +0.000 C 
DOCKED: ATOM     14  N   UNL     1      21.271 -19.510  -1.619 -0.67 -0.00    +0.000 N 
DOCKED: ATOM     15  O   UNL     1      20.648 -17.450  -0.728 -2.03 +0.00    +0.000 OA
DOCKED: ATOM     16  H   UNL     1      21.998 -20.140  -1.830 -0.47 -0.00    +0.000 HD
DOCKED: BRANCH  14  17
DOCKED: ATOM     17  O   UNL     1      19.995 -19.823  -1.947 -1.85 -0.00    +0.000 OA
DOCKED: ATOM     18  H   UNL     1      19.427 -19.050  -1.806 -0.37 -0.00    +0.000 HD
DOCKED: ENDBRANCH  14  17
DOCKED: ENDBRANCH  12  13
DOCKED: ENDBRANCH  11  12
DOCKED: ENDBRANCH  10  11
DOCKED: ENDBRANCH   1  10
DOCKED: TORSDOF 9
DOCKED: TER
DOCKED: ENDMDL
________________________________________________________________________________


	BEGINNING GENETIC ALGORITHM DOCKING 49 of 100
Run: 49 Seed: 2135359159 688731318 [ Run 49 of 100 GA/GALS ]
Beginning LAMARCKIAN GENETIC ALGORITHM (LGA), with a maximum of 2500000 energy evaluations.

Final-Value: -13.515


	FINAL GENETIC ALGORITHM DOCKED STATE
	_______________________________________________


Detailed state:  trans 22.611 -17.214 -0.789 quatxyzw 0.122888 -0.700344 -0.225924 -0.665864 center 0.359 0.163 0.443 ntor 9 -177.9663 -4.7752 125.5594 175.5001 88.6763 -147.4338 99.1226 -2.6338 76.7049
State:	 22.611 -17.214  -0.789   0.165 -0.939 -0.303 -96.503   -177.97   -4.78  125.56  175.50   88.68 -147.43   99.12   -2.63   76.70

DOCKED: MODEL       49
DOCKED: USER    Run = 49
DOCKED: USER    DPF = ligand_dock.biased.dpf
DOCKED: USER  
DOCKED: USER    Estimated Free Energy of Binding    =   -9.30 kcal/mol  [=(1)+(2)+(3)-(4)]
DOCKED: USER    Estimated Inhibition Constant, Ki   =  151.85 nM (nanomolar)  [Temperature = 298.15 K]
DOCKED: USER    
DOCKED: USER    (1) Final Intermolecular Energy     =  -11.99 kcal/mol
DOCKED: USER        vdW + Hbond + desolv Energy     =  -11.99 kcal/mol
DOCKED: USER        Electrostatic Energy            =   +0.00 kcal/mol
DOCKED: USER    (2) Final Total Internal Energy     =   -1.53 kcal/mol
DOCKED: USER    (3) Torsional Free Energy           =   +2.68 kcal/mol
DOCKED: USER    (4) Unbound System's Energy  [=(2)] =   -1.53 kcal/mol
DOCKED: USER    
DOCKED: USER    
DOCKED: USER    NEWDPF move ligand.pdbqt
DOCKED: USER    NEWDPF about 0.359000 0.163000 0.443000
DOCKED: USER    NEWDPF tran0 22.611442 -17.213602 -0.789002
DOCKED: USER    NEWDPF quaternion0 0.122888 -0.700344 -0.225924 -0.665864
DOCKED: USER    NEWDPF axisangle0 0.164713 -0.938707 -0.302818 -96.502647
DOCKED: USER    NEWDPF quat0 0.164713 -0.938707 -0.302818 -96.502647
DOCKED: USER    NEWDPF dihe0 -177.97 -4.78 125.56 175.50 88.68 -147.43 99.12 -2.63 76.70 
DOCKED: USER  keepresnum = 1 
DOCKED: USER  
DOCKED: REMARK  Name = 
DOCKED: REMARK  9 active torsions:
DOCKED: REMARK  status: ('A' for Active; 'I' for Inactive)
DOCKED: REMARK    1  A    between atoms: O_1  and  N_2
DOCKED: REMARK    2  A    between atoms: C_3  and  C_4
DOCKED: REMARK    3  A    between atoms: C_4  and  C_5
DOCKED: REMARK    4  A    between atoms: C_5  and  C_6
DOCKED: REMARK    5  A    between atoms: C_6  and  C_7
DOCKED: REMARK    6  A    between atoms: C_7  and  C_8
DOCKED: REMARK    7  A    between atoms: C_8  and  C_9
DOCKED: REMARK    8  A    between atoms: C_9  and  C_10
DOCKED: REMARK    9  A    between atoms: N_11  and  O_12
DOCKED: REMARK                            x       y       z     vdW  Elec       q    Type
DOCKED: REMARK                         _______ _______ _______ _____ _____    ______ ____
DOCKED: USER                              x       y       z     vdW  Elec       q    Type
DOCKED: USER                           _______ _______ _______ _____ _____    ______ ____
DOCKED: ROOT
DOCKED: ATOM      1  C   UNL     1      23.521 -17.163  -1.064 -0.69 -0.00    +0.000 C 
DOCKED: ENDROOT
DOCKED: BRANCH   1   2
DOCKED: ATOM      2  C   UNL     1      23.091 -18.231  -0.050 -0.78 -0.00    +0.000 C 
DOCKED: BRANCH   2   3
DOCKED: ATOM      3  C   UNL     1      22.309 -19.355  -0.735 -0.76 -0.00    +0.000 C 
DOCKED: BRANCH   3   5
DOCKED: ATOM      4  N   UNL     1      19.888 -20.124  -0.705 -0.75 -0.00    +0.000 N 
DOCKED: ATOM      5  C   UNL     1      20.840 -19.056  -0.720 -0.89 -0.00    +0.000 C 
DOCKED: ATOM      6  O   UNL     1      20.444 -17.861  -0.761 -2.27 -0.00    +0.000 OA
DOCKED: ATOM      7  H   UNL     1      20.201 -21.057  -0.709 -0.37 -0.00    +0.000 HD
DOCKED: BRANCH   4   8
DOCKED: ATOM      8  O   UNL     1      18.559 -19.861  -0.687 -0.79 -0.00    +0.000 OA
DOCKED: ATOM      9  H   UNL     1      18.420 -18.901  -0.718 -0.58 -0.00    +0.000 HD
DOCKED: ENDBRANCH   4   8
DOCKED: ENDBRANCH   3   5
DOCKED: ENDBRANCH   2   3
DOCKED: ENDBRANCH   1   2
DOCKED: BRANCH   1  10
DOCKED: ATOM     10  C   UNL     1      24.767 -17.610  -1.842 -0.64 -0.00    +0.000 C 
DOCKED: BRANCH  10  11
DOCKED: ATOM     11  C   UNL     1      26.081 -17.094  -1.227 -0.57 -0.00    +0.000 C 
DOCKED: BRANCH  11  12
DOCKED: ATOM     12  C   UNL     1      26.389 -15.622  -1.556 -0.43 -0.00    +0.000 C 
DOCKED: BRANCH  12  13
DOCKED: ATOM     13  C   UNL     1      26.657 -15.399  -3.017 -0.43 -0.00    +0.000 C 
DOCKED: ATOM     14  N   UNL     1      25.711 -15.829  -4.002 -0.56 -0.00    +0.000 N 
DOCKED: ATOM     15  O   UNL     1      27.734 -14.854  -3.380 -0.25 -0.00    +0.000 OA
DOCKED: ATOM     16  H   UNL     1      24.881 -16.276  -3.718 -0.04 -0.00    +0.000 HD
DOCKED: BRANCH  14  17
DOCKED: ATOM     17  O   UNL     1      25.949 -15.625  -5.319 -1.13 +0.00    +0.000 OA
DOCKED: ATOM     18  H   UNL     1      26.764 -15.110  -5.424 -0.05 +0.00    +0.000 HD
DOCKED: ENDBRANCH  14  17
DOCKED: ENDBRANCH  12  13
DOCKED: ENDBRANCH  11  12
DOCKED: ENDBRANCH  10  11
DOCKED: ENDBRANCH   1  10
DOCKED: TORSDOF 9
DOCKED: TER
DOCKED: ENDMDL
________________________________________________________________________________


	BEGINNING GENETIC ALGORITHM DOCKING 50 of 100
Run: 50 Seed: 416497098 1779283592 [ Run 50 of 100 GA/GALS ]
Beginning LAMARCKIAN GENETIC ALGORITHM (LGA), with a maximum of 2500000 energy evaluations.

Final-Value: -13.704


	FINAL GENETIC ALGORITHM DOCKED STATE
	_______________________________________________


Detailed state:  trans 24.274 -17.409 0.217 quatxyzw 0.270987 -0.132749 -0.938056 -0.170280 center 0.359 0.163 0.443 ntor 9 167.1043 14.0069 27.5624 118.3715 -2.1507 179.8357 -26.4037 -44.0503 -145.3817
State:	 24.274 -17.409   0.217   0.275 -0.135 -0.952 -160.392    167.10   14.01   27.56  118.37   -2.15  179.84  -26.40  -44.05 -145.38

DOCKED: MODEL       50
DOCKED: USER    Run = 50
DOCKED: USER    DPF = ligand_dock.biased.dpf
DOCKED: USER  
DOCKED: USER    Estimated Free Energy of Binding    =   -9.55 kcal/mol  [=(1)+(2)+(3)-(4)]
DOCKED: USER    Estimated Inhibition Constant, Ki   =  100.08 nM (nanomolar)  [Temperature = 298.15 K]
DOCKED: USER    
DOCKED: USER    (1) Final Intermolecular Energy     =  -12.23 kcal/mol
DOCKED: USER        vdW + Hbond + desolv Energy     =  -12.23 kcal/mol
DOCKED: USER        Electrostatic Energy            =   +0.00 kcal/mol
DOCKED: USER    (2) Final Total Internal Energy     =   -1.47 kcal/mol
DOCKED: USER    (3) Torsional Free Energy           =   +2.68 kcal/mol
DOCKED: USER    (4) Unbound System's Energy  [=(2)] =   -1.47 kcal/mol
DOCKED: USER    
DOCKED: USER    
DOCKED: USER    NEWDPF move ligand.pdbqt
DOCKED: USER    NEWDPF about 0.359000 0.163000 0.443000
DOCKED: USER    NEWDPF tran0 24.273573 -17.409425 0.217377
DOCKED: USER    NEWDPF quaternion0 0.270987 -0.132749 -0.938056 -0.170280
DOCKED: USER    NEWDPF axisangle0 0.275003 -0.134716 -0.951958 -160.391811
DOCKED: USER    NEWDPF quat0 0.275003 -0.134716 -0.951958 -160.391811
DOCKED: USER    NEWDPF dihe0 167.10 14.01 27.56 118.37 -2.15 179.84 -26.40 -44.05 -145.38 
DOCKED: USER  keepresnum = 1 
DOCKED: USER  
DOCKED: REMARK  Name = 
DOCKED: REMARK  9 active torsions:
DOCKED: REMARK  status: ('A' for Active; 'I' for Inactive)
DOCKED: REMARK    1  A    between atoms: O_1  and  N_2
DOCKED: REMARK    2  A    between atoms: C_3  and  C_4
DOCKED: REMARK    3  A    between atoms: C_4  and  C_5
DOCKED: REMARK    4  A    between atoms: C_5  and  C_6
DOCKED: REMARK    5  A    between atoms: C_6  and  C_7
DOCKED: REMARK    6  A    between atoms: C_7  and  C_8
DOCKED: REMARK    7  A    between atoms: C_8  and  C_9
DOCKED: REMARK    8  A    between atoms: C_9  and  C_10
DOCKED: REMARK    9  A    between atoms: N_11  and  O_12
DOCKED: REMARK                            x       y       z     vdW  Elec       q    Type
DOCKED: REMARK                         _______ _______ _______ _____ _____    ______ ____
DOCKED: USER                              x       y       z     vdW  Elec       q    Type
DOCKED: USER                           _______ _______ _______ _____ _____    ______ ____
DOCKED: ROOT
DOCKED: ATOM      1  C   UNL     1      25.044 -17.441  -0.341 -0.62 -0.00    +0.000 C 
DOCKED: ENDROOT
DOCKED: BRANCH   1   2
DOCKED: ATOM      2  C   UNL     1      23.646 -17.513  -0.968 -0.75 -0.00    +0.000 C 
DOCKED: BRANCH   2   3
DOCKED: ATOM      3  C   UNL     1      22.795 -18.593  -0.292 -0.82 -0.00    +0.000 C 
DOCKED: BRANCH   3   5
DOCKED: ATOM      4  N   UNL     1      20.995 -19.734  -1.674 -0.71 -0.00    +0.000 N 
DOCKED: ATOM      5  C   UNL     1      21.417 -18.621  -0.881 -0.84 -0.00    +0.000 C 
DOCKED: ATOM      6  O   UNL     1      20.643 -17.641  -0.710 -2.19 +0.00    +0.000 OA
DOCKED: ATOM      7  H   UNL     1      21.615 -20.481  -1.835 -0.41 -0.00    +0.000 HD
DOCKED: BRANCH   4   8
DOCKED: ATOM      8  O   UNL     1      19.750 -19.768  -2.205 -1.75 -0.00    +0.000 OA
DOCKED: ATOM      9  H   UNL     1      19.205 -19.076  -1.796 -0.51 -0.00    +0.000 HD
DOCKED: ENDBRANCH   4   8
DOCKED: ENDBRANCH   3   5
DOCKED: ENDBRANCH   2   3
DOCKED: ENDBRANCH   1   2
DOCKED: BRANCH   1  10
DOCKED: ATOM     10  C   UNL     1      26.066 -16.874  -1.336 -0.55 -0.00    +0.000 C 
DOCKED: BRANCH  10  11
DOCKED: ATOM     11  C   UNL     1      25.538 -15.656  -2.117 -0.52 -0.00    +0.000 C 
DOCKED: BRANCH  11  12
DOCKED: ATOM     12  C   UNL     1      25.503 -15.858  -3.642 -0.48 -0.00    +0.000 C 
DOCKED: BRANCH  12  13
DOCKED: ATOM     13  C   UNL     1      26.689 -15.248  -4.334 -0.52 -0.00    +0.000 C 
DOCKED: ATOM     14  N   UNL     1      27.664 -14.511  -3.589 -0.23 -0.00    +0.000 N 
DOCKED: ATOM     15  O   UNL     1      26.812 -15.363  -5.583 -1.17 +0.00    +0.000 OA
DOCKED: ATOM     16  H   UNL     1      27.554 -14.401  -2.617 +0.01 -0.00    +0.000 HD
DOCKED: BRANCH  14  17
DOCKED: ATOM     17  O   UNL     1      28.736 -13.964  -4.210 -0.15 -0.00    +0.000 OA
DOCKED: ATOM     18  H   UNL     1      28.589 -13.966  -5.169 -0.00 -0.00    +0.000 HD
DOCKED: ENDBRANCH  14  17
DOCKED: ENDBRANCH  12  13
DOCKED: ENDBRANCH  11  12
DOCKED: ENDBRANCH  10  11
DOCKED: ENDBRANCH   1  10
DOCKED: TORSDOF 9
DOCKED: TER
DOCKED: ENDMDL
________________________________________________________________________________


	BEGINNING GENETIC ALGORITHM DOCKING 51 of 100
Run: 51 Seed: 2091169396 204191401 [ Run 51 of 100 GA/GALS ]
Beginning LAMARCKIAN GENETIC ALGORITHM (LGA), with a maximum of 2500000 energy evaluations.

Final-Value: -13.971


	FINAL GENETIC ALGORITHM DOCKED STATE
	_______________________________________________


Detailed state:  trans 26.842 -16.432 -1.147 quatxyzw 0.574213 0.716995 0.328829 -0.219246 center 0.359 0.163 0.443 ntor 9 -169.7618 29.6550 176.0201 -71.1177 153.1858 55.1650 -34.0532 -149.2729 -156.8535
State:	 26.842 -16.432  -1.147   0.589  0.735  0.337 -154.671   -169.76   29.65  176.02  -71.12  153.19   55.16  -34.05 -149.27 -156.85

DOCKED: MODEL       51
DOCKED: USER    Run = 51
DOCKED: USER    DPF = ligand_dock.biased.dpf
DOCKED: USER  
DOCKED: USER    Estimated Free Energy of Binding    =   -9.92 kcal/mol  [=(1)+(2)+(3)-(4)]
DOCKED: USER    Estimated Inhibition Constant, Ki   =   53.76 nM (nanomolar)  [Temperature = 298.15 K]
DOCKED: USER    
DOCKED: USER    (1) Final Intermolecular Energy     =  -12.60 kcal/mol
DOCKED: USER        vdW + Hbond + desolv Energy     =  -12.60 kcal/mol
DOCKED: USER        Electrostatic Energy            =   +0.00 kcal/mol
DOCKED: USER    (2) Final Total Internal Energy     =   -1.37 kcal/mol
DOCKED: USER    (3) Torsional Free Energy           =   +2.68 kcal/mol
DOCKED: USER    (4) Unbound System's Energy  [=(2)] =   -1.37 kcal/mol
DOCKED: USER    
DOCKED: USER    
DOCKED: USER    NEWDPF move ligand.pdbqt
DOCKED: USER    NEWDPF about 0.359000 0.163000 0.443000
DOCKED: USER    NEWDPF tran0 26.842400 -16.431924 -1.146704
DOCKED: USER    NEWDPF quaternion0 0.574213 0.716995 0.328829 -0.219246
DOCKED: USER    NEWDPF axisangle0 0.588532 0.734875 0.337029 -154.670542
DOCKED: USER    NEWDPF quat0 0.588532 0.734875 0.337029 -154.670542
DOCKED: USER    NEWDPF dihe0 -169.76 29.65 176.02 -71.12 153.19 55.16 -34.05 -149.27 -156.85 
DOCKED: USER  keepresnum = 1 
DOCKED: USER  
DOCKED: REMARK  Name = 
DOCKED: REMARK  9 active torsions:
DOCKED: REMARK  status: ('A' for Active; 'I' for Inactive)
DOCKED: REMARK    1  A    between atoms: O_1  and  N_2
DOCKED: REMARK    2  A    between atoms: C_3  and  C_4
DOCKED: REMARK    3  A    between atoms: C_4  and  C_5
DOCKED: REMARK    4  A    between atoms: C_5  and  C_6
DOCKED: REMARK    5  A    between atoms: C_6  and  C_7
DOCKED: REMARK    6  A    between atoms: C_7  and  C_8
DOCKED: REMARK    7  A    between atoms: C_8  and  C_9
DOCKED: REMARK    8  A    between atoms: C_9  and  C_10
DOCKED: REMARK    9  A    between atoms: N_11  and  O_12
DOCKED: REMARK                            x       y       z     vdW  Elec       q    Type
DOCKED: REMARK                         _______ _______ _______ _____ _____    ______ ____
DOCKED: USER                              x       y       z     vdW  Elec       q    Type
DOCKED: USER                           _______ _______ _______ _____ _____    ______ ____
DOCKED: ROOT
DOCKED: ATOM      1  C   UNL     1      26.331 -16.953  -0.537 -0.55 -0.00    +0.000 C 
DOCKED: ENDROOT
DOCKED: BRANCH   1   2
DOCKED: ATOM      2  C   UNL     1      25.818 -15.576  -0.976 -0.44 -0.00    +0.000 C 
DOCKED: BRANCH   2   3
DOCKED: ATOM      3  C   UNL     1      26.822 -14.476  -0.618 -0.31 -0.00    +0.000 C 
DOCKED: BRANCH   3   5
DOCKED: ATOM      4  N   UNL     1      27.345 -14.389   1.866 -0.26 -0.00    +0.000 N 
DOCKED: ATOM      5  C   UNL     1      27.652 -14.887   0.561 -0.29 -0.00    +0.000 C 
DOCKED: ATOM      6  O   UNL     1      28.647 -15.642   0.393 -0.27 -0.00    +0.000 OA
DOCKED: ATOM      7  H   UNL     1      26.589 -13.771   1.987 -0.02 -0.00    +0.000 HD
DOCKED: BRANCH   4   8
DOCKED: ATOM      8  O   UNL     1      28.088 -14.759   2.936 -0.39 -0.00    +0.000 OA
DOCKED: ATOM      9  H   UNL     1      28.880 -15.231   2.632 -1.97 -0.00    +0.000 HD
DOCKED: ENDBRANCH   4   8
DOCKED: ENDBRANCH   3   5
DOCKED: ENDBRANCH   2   3
DOCKED: ENDBRANCH   1   2
DOCKED: BRANCH   1  10
DOCKED: ATOM     10  C   UNL     1      25.170 -17.867  -0.120 -0.65 -0.00    +0.000 C 
DOCKED: BRANCH  10  11
DOCKED: ATOM     11  C   UNL     1      23.873 -17.593  -0.904 -0.76 -0.00    +0.000 C 
DOCKED: BRANCH  11  12
DOCKED: ATOM     12  C   UNL     1      23.164 -18.863  -1.404 -0.78 -0.00    +0.000 C 
DOCKED: BRANCH  12  13
DOCKED: ATOM     13  C   UNL     1      21.676 -18.815  -1.199 -0.74 -0.00    +0.000 C 
DOCKED: ATOM     14  N   UNL     1      20.824 -19.772  -1.836 -0.69 -0.00    +0.000 N 
DOCKED: ATOM     15  O   UNL     1      21.173 -17.909  -0.482 -1.89 -0.00    +0.000 OA
DOCKED: ATOM     16  H   UNL     1      21.216 -20.465  -2.416 -0.51 -0.00    +0.000 HD
DOCKED: BRANCH  14  17
DOCKED: ATOM     17  O   UNL     1      19.484 -19.732  -1.649 -1.58 -0.00    +0.000 OA
DOCKED: ATOM     18  H   UNL     1      19.208 -18.817  -1.486 -0.50 -0.00    +0.000 HD
DOCKED: ENDBRANCH  14  17
DOCKED: ENDBRANCH  12  13
DOCKED: ENDBRANCH  11  12
DOCKED: ENDBRANCH  10  11
DOCKED: ENDBRANCH   1  10
DOCKED: TORSDOF 9
DOCKED: TER
DOCKED: ENDMDL
________________________________________________________________________________


	BEGINNING GENETIC ALGORITHM DOCKING 52 of 100
Run: 52 Seed: 74239325 29740261 [ Run 52 of 100 GA/GALS ]
Beginning LAMARCKIAN GENETIC ALGORITHM (LGA), with a maximum of 2500000 energy evaluations.

Final-Value: -13.806


	FINAL GENETIC ALGORITHM DOCKED STATE
	_______________________________________________


Detailed state:  trans 25.446 -15.260 -2.318 quatxyzw 0.743524 -0.273095 -0.129058 0.596603 center 0.359 0.163 0.443 ntor 9 171.8135 5.0543 151.7757 -149.6030 79.0289 45.7868 14.7216 -64.3088 57.8071
State:	 25.446 -15.260  -2.318   0.926 -0.340 -0.161 106.746    171.81    5.05  151.78 -149.60   79.03   45.79   14.72  -64.31   57.81

DOCKED: MODEL       52
DOCKED: USER    Run = 52
DOCKED: USER    DPF = ligand_dock.biased.dpf
DOCKED: USER  
DOCKED: USER    Estimated Free Energy of Binding    =   -9.67 kcal/mol  [=(1)+(2)+(3)-(4)]
DOCKED: USER    Estimated Inhibition Constant, Ki   =   81.46 nM (nanomolar)  [Temperature = 298.15 K]
DOCKED: USER    
DOCKED: USER    (1) Final Intermolecular Energy     =  -12.36 kcal/mol
DOCKED: USER        vdW + Hbond + desolv Energy     =  -12.36 kcal/mol
DOCKED: USER        Electrostatic Energy            =   +0.00 kcal/mol
DOCKED: USER    (2) Final Total Internal Energy     =   -1.45 kcal/mol
DOCKED: USER    (3) Torsional Free Energy           =   +2.68 kcal/mol
DOCKED: USER    (4) Unbound System's Energy  [=(2)] =   -1.45 kcal/mol
DOCKED: USER    
DOCKED: USER    
DOCKED: USER    NEWDPF move ligand.pdbqt
DOCKED: USER    NEWDPF about 0.359000 0.163000 0.443000
DOCKED: USER    NEWDPF tran0 25.445902 -15.259959 -2.318391
DOCKED: USER    NEWDPF quaternion0 0.743524 -0.273095 -0.129058 0.596603
DOCKED: USER    NEWDPF axisangle0 0.926468 -0.340289 -0.160812 106.746063
DOCKED: USER    NEWDPF quat0 0.926468 -0.340289 -0.160812 106.746063
DOCKED: USER    NEWDPF dihe0 171.81 5.05 151.78 -149.60 79.03 45.79 14.72 -64.31 57.81 
DOCKED: USER  keepresnum = 1 
DOCKED: USER  
DOCKED: REMARK  Name = 
DOCKED: REMARK  9 active torsions:
DOCKED: REMARK  status: ('A' for Active; 'I' for Inactive)
DOCKED: REMARK    1  A    between atoms: O_1  and  N_2
DOCKED: REMARK    2  A    between atoms: C_3  and  C_4
DOCKED: REMARK    3  A    between atoms: C_4  and  C_5
DOCKED: REMARK    4  A    between atoms: C_5  and  C_6
DOCKED: REMARK    5  A    between atoms: C_6  and  C_7
DOCKED: REMARK    6  A    between atoms: C_7  and  C_8
DOCKED: REMARK    7  A    between atoms: C_8  and  C_9
DOCKED: REMARK    8  A    between atoms: C_9  and  C_10
DOCKED: REMARK    9  A    between atoms: N_11  and  O_12
DOCKED: REMARK                            x       y       z     vdW  Elec       q    Type
DOCKED: REMARK                         _______ _______ _______ _____ _____    ______ ____
DOCKED: USER                              x       y       z     vdW  Elec       q    Type
DOCKED: USER                           _______ _______ _______ _____ _____    ______ ____
DOCKED: ROOT
DOCKED: ATOM      1  C   UNL     1      25.032 -16.028  -1.939 -0.53 -0.00    +0.000 C 
DOCKED: ENDROOT
DOCKED: BRANCH   1   2
DOCKED: ATOM      2  C   UNL     1      26.512 -16.081  -2.339 -0.45 -0.00    +0.000 C 
DOCKED: BRANCH   2   3
DOCKED: ATOM      3  C   UNL     1      26.906 -14.842  -3.150 -0.37 -0.00    +0.000 C 
DOCKED: BRANCH   3   5
DOCKED: ATOM      4  N   UNL     1      28.133 -14.912  -5.372 -0.38 -0.00    +0.000 N 
DOCKED: ATOM      5  C   UNL     1      26.948 -15.164  -4.613 -0.50 -0.00    +0.000 C 
DOCKED: ATOM      6  O   UNL     1      25.921 -15.621  -5.182 -1.11 +0.00    +0.000 OA
DOCKED: ATOM      7  H   UNL     1      28.921 -14.522  -4.931 +0.00 -0.00    +0.000 HD
DOCKED: BRANCH   4   8
DOCKED: ATOM      8  O   UNL     1      28.179 -15.205  -6.694 -0.66 +0.00    +0.000 OA
DOCKED: ATOM      9  H   UNL     1      27.380 -15.696  -6.944 +0.02 +0.00    +0.000 HD
DOCKED: ENDBRANCH   4   8
DOCKED: ENDBRANCH   3   5
DOCKED: ENDBRANCH   2   3
DOCKED: ENDBRANCH   1   2
DOCKED: BRANCH   1  10
DOCKED: ATOM     10  C   UNL     1      24.726 -17.037  -0.822 -0.65 -0.00    +0.000 C 
DOCKED: BRANCH  10  11
DOCKED: ATOM     11  C   UNL     1      23.795 -18.176  -1.275 -0.78 -0.00    +0.000 C 
DOCKED: BRANCH  11  12
DOCKED: ATOM     12  C   UNL     1      22.746 -18.581  -0.224 -0.81 -0.00    +0.000 C 
DOCKED: BRANCH  12  13
DOCKED: ATOM     13  C   UNL     1      21.346 -18.574  -0.770 -0.85 -0.00    +0.000 C 
DOCKED: ATOM     14  N   UNL     1      20.803 -19.745  -1.388 -0.78 -0.00    +0.000 N 
DOCKED: ATOM     15  O   UNL     1      20.656 -17.521  -0.708 -2.11 +0.00    +0.000 OA
DOCKED: ATOM     16  H   UNL     1      21.352 -20.559  -1.458 -0.23 -0.00    +0.000 HD
DOCKED: BRANCH  14  17
DOCKED: ATOM     17  O   UNL     1      19.540 -19.742  -1.877 -1.67 -0.00    +0.000 OA
DOCKED: ATOM     18  H   UNL     1      19.167 -18.849  -1.803 -0.50 -0.00    +0.000 HD
DOCKED: ENDBRANCH  14  17
DOCKED: ENDBRANCH  12  13
DOCKED: ENDBRANCH  11  12
DOCKED: ENDBRANCH  10  11
DOCKED: ENDBRANCH   1  10
DOCKED: TORSDOF 9
DOCKED: TER
DOCKED: ENDMDL
________________________________________________________________________________


	BEGINNING GENETIC ALGORITHM DOCKING 53 of 100
Run: 53 Seed: 1240708318 973197461 [ Run 53 of 100 GA/GALS ]
Beginning LAMARCKIAN GENETIC ALGORITHM (LGA), with a maximum of 2500000 energy evaluations.

Final-Value: -11.901


	FINAL GENETIC ALGORITHM DOCKED STATE
	_______________________________________________


Detailed state:  trans 28.595 -11.542 3.013 quatxyzw 0.425522 0.849697 -0.258701 -0.173263 center 0.359 0.163 0.443 ntor 9 93.3846 -7.6105 169.0112 -144.0701 -114.2283 -156.7044 21.9486 149.8943 -103.0194
State:	 28.595 -11.542   3.013   0.432  0.863 -0.263 -160.045     93.38   -7.61  169.01 -144.07 -114.23 -156.70   21.95  149.89 -103.02

DOCKED: MODEL       53
DOCKED: USER    Run = 53
DOCKED: USER    DPF = ligand_dock.biased.dpf
DOCKED: USER  
DOCKED: USER    Estimated Free Energy of Binding    =   -5.09 kcal/mol  [=(1)+(2)+(3)-(4)]
DOCKED: USER    Estimated Inhibition Constant, Ki   =  184.49 uM (micromolar)  [Temperature = 298.15 K]
DOCKED: USER    
DOCKED: USER    (1) Final Intermolecular Energy     =   -7.78 kcal/mol
DOCKED: USER        vdW + Hbond + desolv Energy     =   -7.78 kcal/mol
DOCKED: USER        Electrostatic Energy            =   +0.00 kcal/mol
DOCKED: USER    (2) Final Total Internal Energy     =   -4.12 kcal/mol
DOCKED: USER    (3) Torsional Free Energy           =   +2.68 kcal/mol
DOCKED: USER    (4) Unbound System's Energy  [=(2)] =   -4.12 kcal/mol
DOCKED: USER    
DOCKED: USER    
DOCKED: USER    NEWDPF move ligand.pdbqt
DOCKED: USER    NEWDPF about 0.359000 0.163000 0.443000
DOCKED: USER    NEWDPF tran0 28.595374 -11.542035 3.012869
DOCKED: USER    NEWDPF quaternion0 0.425522 0.849697 -0.258701 -0.173263
DOCKED: USER    NEWDPF axisangle0 0.432057 0.862745 -0.262674 -160.044850
DOCKED: USER    NEWDPF quat0 0.432057 0.862745 -0.262674 -160.044850
DOCKED: USER    NEWDPF dihe0 93.38 -7.61 169.01 -144.07 -114.23 -156.70 21.95 149.89 -103.02 
DOCKED: USER  keepresnum = 1 
DOCKED: USER  
DOCKED: REMARK  Name = 
DOCKED: REMARK  9 active torsions:
DOCKED: REMARK  status: ('A' for Active; 'I' for Inactive)
DOCKED: REMARK    1  A    between atoms: O_1  and  N_2
DOCKED: REMARK    2  A    between atoms: C_3  and  C_4
DOCKED: REMARK    3  A    between atoms: C_4  and  C_5
DOCKED: REMARK    4  A    between atoms: C_5  and  C_6
DOCKED: REMARK    5  A    between atoms: C_6  and  C_7
DOCKED: REMARK    6  A    between atoms: C_7  and  C_8
DOCKED: REMARK    7  A    between atoms: C_8  and  C_9
DOCKED: REMARK    8  A    between atoms: C_9  and  C_10
DOCKED: REMARK    9  A    between atoms: N_11  and  O_12
DOCKED: REMARK                            x       y       z     vdW  Elec       q    Type
DOCKED: REMARK                         _______ _______ _______ _____ _____    ______ ____
DOCKED: USER                              x       y       z     vdW  Elec       q    Type
DOCKED: USER                           _______ _______ _______ _____ _____    ______ ____
DOCKED: ROOT
DOCKED: ATOM      1  C   UNL     1      28.750 -11.222   3.896 -0.20 +0.00    +0.000 C 
DOCKED: ENDROOT
DOCKED: BRANCH   1   2
DOCKED: ATOM      2  C   UNL     1      27.540 -10.712   3.103 -0.28 +0.00    +0.000 C 
DOCKED: BRANCH   2   3
DOCKED: ATOM      3  C   UNL     1      27.524 -11.299   1.688 -0.23 +0.00    +0.000 C 
DOCKED: BRANCH   3   5
DOCKED: ATOM      4  N   UNL     1      28.381 -13.678   1.448 -0.20 -0.00    +0.000 N 
DOCKED: ATOM      5  C   UNL     1      27.305 -12.781   1.737 -0.29 -0.00    +0.000 C 
DOCKED: ATOM      6  O   UNL     1      26.159 -13.236   1.995 -0.36 -0.00    +0.000 OA
DOCKED: ATOM      7  H   UNL     1      29.266 -13.318   1.212 -0.02 -0.00    +0.000 HD
DOCKED: BRANCH   4   8
DOCKED: ATOM      8  O   UNL     1      28.192 -15.018   1.494 -0.25 -0.00    +0.000 OA
DOCKED: ATOM      9  H   UNL     1      28.331 -15.332   2.402 -1.41 -0.00    +0.000 HD
DOCKED: ENDBRANCH   4   8
DOCKED: ENDBRANCH   3   5
DOCKED: ENDBRANCH   2   3
DOCKED: ENDBRANCH   1   2
DOCKED: BRANCH   1  10
DOCKED: ATOM     10  C   UNL     1      28.497 -11.131   5.407 -0.33 +0.00    +0.000 C 
DOCKED: BRANCH  10  11
DOCKED: ATOM     11  C   UNL     1      27.761 -12.359   5.972 -0.36 +0.00    +0.000 C 
DOCKED: BRANCH  11  12
DOCKED: ATOM     12  C   UNL     1      28.639 -13.619   6.082 -0.40 -0.00    +0.000 C 
DOCKED: BRANCH  12  13
DOCKED: ATOM     13  C   UNL     1      28.887 -14.270   4.751 -0.49 -0.00    +0.000 C 
DOCKED: ATOM     14  N   UNL     1      30.067 -13.961   4.002 -0.27 -0.00    +0.000 N 
DOCKED: ATOM     15  O   UNL     1      28.038 -15.073   4.280 -0.67 -0.00    +0.000 OA
DOCKED: ATOM     16  H   UNL     1      30.718 -13.315   4.360 +0.00 -0.00    +0.000 HD
DOCKED: BRANCH  14  17
DOCKED: ATOM     17  O   UNL     1      30.294 -14.550   2.804 -0.24 -0.00    +0.000 OA
DOCKED: ATOM     18  H   UNL     1      29.630 -15.240   2.652 -1.79 -0.00    +0.000 HD
DOCKED: ENDBRANCH  14  17
DOCKED: ENDBRANCH  12  13
DOCKED: ENDBRANCH  11  12
DOCKED: ENDBRANCH  10  11
DOCKED: ENDBRANCH   1  10
DOCKED: TORSDOF 9
DOCKED: TER
DOCKED: ENDMDL
________________________________________________________________________________


	BEGINNING GENETIC ALGORITHM DOCKING 54 of 100
Run: 54 Seed: 2012750634 1957832160 [ Run 54 of 100 GA/GALS ]
Beginning LAMARCKIAN GENETIC ALGORITHM (LGA), with a maximum of 2500000 energy evaluations.

Final-Value: -13.963


	FINAL GENETIC ALGORITHM DOCKED STATE
	_______________________________________________


Detailed state:  trans 26.260 -16.434 -1.383 quatxyzw -0.571594 -0.535167 -0.597605 0.172468 center 0.359 0.163 0.443 ntor 9 -138.8516 -7.3132 153.5267 161.5618 120.3270 6.0335 9.2301 173.5970 71.9448
State:	 26.260 -16.434  -1.383  -0.580 -0.543 -0.607 160.137   -138.85   -7.31  153.53  161.56  120.33    6.03    9.23  173.60   71.94

DOCKED: MODEL       54
DOCKED: USER    Run = 54
DOCKED: USER    DPF = ligand_dock.biased.dpf
DOCKED: USER  
DOCKED: USER    Estimated Free Energy of Binding    =  -10.00 kcal/mol  [=(1)+(2)+(3)-(4)]
DOCKED: USER    Estimated Inhibition Constant, Ki   =   46.71 nM (nanomolar)  [Temperature = 298.15 K]
DOCKED: USER    
DOCKED: USER    (1) Final Intermolecular Energy     =  -12.69 kcal/mol
DOCKED: USER        vdW + Hbond + desolv Energy     =  -12.69 kcal/mol
DOCKED: USER        Electrostatic Energy            =   +0.00 kcal/mol
DOCKED: USER    (2) Final Total Internal Energy     =   -1.28 kcal/mol
DOCKED: USER    (3) Torsional Free Energy           =   +2.68 kcal/mol
DOCKED: USER    (4) Unbound System's Energy  [=(2)] =   -1.28 kcal/mol
DOCKED: USER    
DOCKED: USER    
DOCKED: USER    NEWDPF move ligand.pdbqt
DOCKED: USER    NEWDPF about 0.359000 0.163000 0.443000
DOCKED: USER    NEWDPF tran0 26.259865 -16.434164 -1.383030
DOCKED: USER    NEWDPF quaternion0 -0.571594 -0.535167 -0.597605 0.172468
DOCKED: USER    NEWDPF axisangle0 -0.580289 -0.543309 -0.606696 160.137284
DOCKED: USER    NEWDPF quat0 -0.580289 -0.543309 -0.606696 160.137284
DOCKED: USER    NEWDPF dihe0 -138.85 -7.31 153.53 161.56 120.33 6.03 9.23 173.60 71.94 
DOCKED: USER  keepresnum = 1 
DOCKED: USER  
DOCKED: REMARK  Name = 
DOCKED: REMARK  9 active torsions:
DOCKED: REMARK  status: ('A' for Active; 'I' for Inactive)
DOCKED: REMARK    1  A    between atoms: O_1  and  N_2
DOCKED: REMARK    2  A    between atoms: C_3  and  C_4
DOCKED: REMARK    3  A    between atoms: C_4  and  C_5
DOCKED: REMARK    4  A    between atoms: C_5  and  C_6
DOCKED: REMARK    5  A    between atoms: C_6  and  C_7
DOCKED: REMARK    6  A    between atoms: C_7  and  C_8
DOCKED: REMARK    7  A    between atoms: C_8  and  C_9
DOCKED: REMARK    8  A    between atoms: C_9  and  C_10
DOCKED: REMARK    9  A    between atoms: N_11  and  O_12
DOCKED: REMARK                            x       y       z     vdW  Elec       q    Type
DOCKED: REMARK                         _______ _______ _______ _____ _____    ______ ____
DOCKED: USER                              x       y       z     vdW  Elec       q    Type
DOCKED: USER                           _______ _______ _______ _____ _____    ______ ____
DOCKED: ROOT
DOCKED: ATOM      1  C   UNL     1      25.599 -17.117  -1.328 -0.61 -0.00    +0.000 C 
DOCKED: ENDROOT
DOCKED: BRANCH   1   2
DOCKED: ATOM      2  C   UNL     1      25.205 -15.654  -1.086 -0.38 -0.00    +0.000 C 
DOCKED: BRANCH   2   3
DOCKED: ATOM      3  C   UNL     1      26.442 -14.786  -0.838 -0.35 -0.00    +0.000 C 
DOCKED: BRANCH   3   5
DOCKED: ATOM      4  N   UNL     1      27.457 -14.406   1.459 -0.29 -0.00    +0.000 N 
DOCKED: ATOM      5  C   UNL     1      27.200 -15.280   0.356 -0.29 -0.00    +0.000 C 
DOCKED: ATOM      6  O   UNL     1      27.646 -16.459   0.370 -0.39 -0.00    +0.000 OA
DOCKED: ATOM      7  H   UNL     1      27.138 -13.476   1.429 -0.01 -0.00    +0.000 HD
DOCKED: BRANCH   4   8
DOCKED: ATOM      8  O   UNL     1      28.138 -14.848   2.543 -0.32 -0.00    +0.000 OA
DOCKED: ATOM      9  H   UNL     1      28.878 -15.405   2.254 -1.81 -0.00    +0.000 HD
DOCKED: ENDBRANCH   4   8
DOCKED: ENDBRANCH   3   5
DOCKED: ENDBRANCH   2   3
DOCKED: ENDBRANCH   1   2
DOCKED: BRANCH   1  10
DOCKED: ATOM     10  C   UNL     1      24.400 -17.936  -1.825 -0.63 -0.00    +0.000 C 
DOCKED: BRANCH  10  11
DOCKED: ATOM     11  C   UNL     1      23.723 -18.755  -0.710 -0.80 -0.00    +0.000 C 
DOCKED: BRANCH  11  12
DOCKED: ATOM     12  C   UNL     1      22.477 -18.081  -0.108 -0.79 -0.00    +0.000 C 
DOCKED: BRANCH  12  13
DOCKED: ATOM     13  C   UNL     1      21.220 -18.409  -0.862 -0.78 -0.00    +0.000 C 
DOCKED: ATOM     14  N   UNL     1      20.996 -19.733  -1.358 -0.76 -0.00    +0.000 N 
DOCKED: ATOM     15  O   UNL     1      20.369 -17.506  -1.082 -2.06 -0.00    +0.000 OA
DOCKED: ATOM     16  H   UNL     1      21.673 -20.432  -1.206 -0.21 -0.00    +0.000 HD
DOCKED: BRANCH  14  17
DOCKED: ATOM     17  O   UNL     1      19.862 -20.032  -2.034 -1.77 -0.00    +0.000 OA
DOCKED: ATOM     18  H   UNL     1      19.256 -19.275  -1.998 -0.45 -0.00    +0.000 HD
DOCKED: ENDBRANCH  14  17
DOCKED: ENDBRANCH  12  13
DOCKED: ENDBRANCH  11  12
DOCKED: ENDBRANCH  10  11
DOCKED: ENDBRANCH   1  10
DOCKED: TORSDOF 9
DOCKED: TER
DOCKED: ENDMDL
________________________________________________________________________________


	BEGINNING GENETIC ALGORITHM DOCKING 55 of 100
Run: 55 Seed: 1954282727 1762310264 [ Run 55 of 100 GA/GALS ]
Beginning LAMARCKIAN GENETIC ALGORITHM (LGA), with a maximum of 2500000 energy evaluations.

Final-Value: -12.942


	FINAL GENETIC ALGORITHM DOCKED STATE
	_______________________________________________


Detailed state:  trans 26.709 -17.446 -0.126 quatxyzw 0.415609 0.376475 0.542643 -0.625359 center 0.359 0.163 0.443 ntor 9 177.2394 11.3800 120.7288 -177.3457 -58.7784 158.0905 -23.2430 -8.5253 90.2455
State:	 26.709 -17.446  -0.126   0.533  0.482  0.695 -102.583    177.24   11.38  120.73 -177.35  -58.78  158.09  -23.24   -8.53   90.25

DOCKED: MODEL       55
DOCKED: USER    Run = 55
DOCKED: USER    DPF = ligand_dock.biased.dpf
DOCKED: USER  
DOCKED: USER    Estimated Free Energy of Binding    =   -8.80 kcal/mol  [=(1)+(2)+(3)-(4)]
DOCKED: USER    Estimated Inhibition Constant, Ki   =  352.65 nM (nanomolar)  [Temperature = 298.15 K]
DOCKED: USER    
DOCKED: USER    (1) Final Intermolecular Energy     =  -11.49 kcal/mol
DOCKED: USER        vdW + Hbond + desolv Energy     =  -11.49 kcal/mol
DOCKED: USER        Electrostatic Energy            =   +0.00 kcal/mol
DOCKED: USER    (2) Final Total Internal Energy     =   -1.45 kcal/mol
DOCKED: USER    (3) Torsional Free Energy           =   +2.68 kcal/mol
DOCKED: USER    (4) Unbound System's Energy  [=(2)] =   -1.45 kcal/mol
DOCKED: USER    
DOCKED: USER    
DOCKED: USER    NEWDPF move ligand.pdbqt
DOCKED: USER    NEWDPF about 0.359000 0.163000 0.443000
DOCKED: USER    NEWDPF tran0 26.709268 -17.445566 -0.126431
DOCKED: USER    NEWDPF quaternion0 0.415609 0.376475 0.542643 -0.625359
DOCKED: USER    NEWDPF axisangle0 0.532602 0.482452 0.695396 -102.582921
DOCKED: USER    NEWDPF quat0 0.532602 0.482452 0.695396 -102.582921
DOCKED: USER    NEWDPF dihe0 177.24 11.38 120.73 -177.35 -58.78 158.09 -23.24 -8.53 90.25 
DOCKED: USER  keepresnum = 1 
DOCKED: USER  
DOCKED: REMARK  Name = 
DOCKED: REMARK  9 active torsions:
DOCKED: REMARK  status: ('A' for Active; 'I' for Inactive)
DOCKED: REMARK    1  A    between atoms: O_1  and  N_2
DOCKED: REMARK    2  A    between atoms: C_3  and  C_4
DOCKED: REMARK    3  A    between atoms: C_4  and  C_5
DOCKED: REMARK    4  A    between atoms: C_5  and  C_6
DOCKED: REMARK    5  A    between atoms: C_6  and  C_7
DOCKED: REMARK    6  A    between atoms: C_7  and  C_8
DOCKED: REMARK    7  A    between atoms: C_8  and  C_9
DOCKED: REMARK    8  A    between atoms: C_9  and  C_10
DOCKED: REMARK    9  A    between atoms: N_11  and  O_12
DOCKED: REMARK                            x       y       z     vdW  Elec       q    Type
DOCKED: REMARK                         _______ _______ _______ _____ _____    ______ ____
DOCKED: USER                              x       y       z     vdW  Elec       q    Type
DOCKED: USER                           _______ _______ _______ _____ _____    ______ ____
DOCKED: ROOT
DOCKED: ATOM      1  C   UNL     1      25.836 -17.683  -0.422 -0.65 -0.00    +0.000 C 
DOCKED: ENDROOT
DOCKED: BRANCH   1   2
DOCKED: ATOM      2  C   UNL     1      26.430 -16.325  -0.817 -0.48 -0.00    +0.000 C 
DOCKED: BRANCH   2   3
DOCKED: ATOM      3  C   UNL     1      27.024 -15.610   0.400 -0.22 -0.00    +0.000 C 
DOCKED: BRANCH   3   5
DOCKED: ATOM      4  N   UNL     1      29.354 -15.155   1.303 +0.11 -0.00    +0.000 N 
DOCKED: ATOM      5  C   UNL     1      28.479 -15.325   0.184 -0.23 -0.00    +0.000 C 
DOCKED: ATOM      6  O   UNL     1      28.924 -15.195  -0.988 -0.16 -0.00    +0.000 OA
DOCKED: ATOM      7  H   UNL     1      28.996 -15.222   2.217 -1.84 -0.00    +0.000 HD
DOCKED: BRANCH   4   8
DOCKED: ATOM      8  O   UNL     1      30.671 -14.902   1.114 -0.15 -0.00    +0.000 OA
DOCKED: ATOM      9  H   UNL     1      30.869 -14.911   0.164 -0.00 -0.00    +0.000 HD
DOCKED: ENDBRANCH   4   8
DOCKED: ENDBRANCH   3   5
DOCKED: ENDBRANCH   2   3
DOCKED: ENDBRANCH   1   2
DOCKED: BRANCH   1  10
DOCKED: ATOM     10  C   UNL     1      24.793 -18.148  -1.448 -0.60 -0.00    +0.000 C 
DOCKED: BRANCH  10  11
DOCKED: ATOM     11  C   UNL     1      23.413 -17.496  -1.244 -0.69 -0.00    +0.000 C 
DOCKED: BRANCH  11  12
DOCKED: ATOM     12  C   UNL     1      22.532 -18.209  -0.203 -0.82 -0.00    +0.000 C 
DOCKED: BRANCH  12  13
DOCKED: ATOM     13  C   UNL     1      21.235 -18.701  -0.782 -0.86 -0.00    +0.000 C 
DOCKED: ATOM     14  N   UNL     1      21.232 -19.662  -1.842 -0.54 -0.00    +0.000 N 
DOCKED: ATOM     15  O   UNL     1      20.144 -18.244  -0.348 -1.69 +0.00    +0.000 OA
DOCKED: ATOM     16  H   UNL     1      22.086 -20.000  -2.197 -0.55 -0.00    +0.000 HD
DOCKED: BRANCH  14  17
DOCKED: ATOM     17  O   UNL     1      20.065 -20.109  -2.362 -1.75 -0.00    +0.000 OA
DOCKED: ATOM     18  H   UNL     1      19.335 -19.558  -2.038 -0.37 -0.00    +0.000 HD
DOCKED: ENDBRANCH  14  17
DOCKED: ENDBRANCH  12  13
DOCKED: ENDBRANCH  11  12
DOCKED: ENDBRANCH  10  11
DOCKED: ENDBRANCH   1  10
DOCKED: TORSDOF 9
DOCKED: TER
DOCKED: ENDMDL
________________________________________________________________________________


	BEGINNING GENETIC ALGORITHM DOCKING 56 of 100
Run: 56 Seed: 68046395 368052135 [ Run 56 of 100 GA/GALS ]
Beginning LAMARCKIAN GENETIC ALGORITHM (LGA), with a maximum of 2500000 energy evaluations.

Final-Value: -13.990


	FINAL GENETIC ALGORITHM DOCKED STATE
	_______________________________________________


Detailed state:  trans 26.707 -17.833 0.042 quatxyzw 0.322342 0.386333 0.338831 -0.795007 center 0.359 0.163 0.443 ntor 9 180.0000 4.6590 48.9221 97.1375 39.6193 38.7597 -127.5121 -175.8204 8.4920
State:	 26.707 -17.833   0.042   0.531  0.637  0.559 -74.688    180.00    4.66   48.92   97.14   39.62   38.76 -127.51 -175.82    8.49

DOCKED: MODEL       56
DOCKED: USER    Run = 56
DOCKED: USER    DPF = ligand_dock.biased.dpf
DOCKED: USER  
DOCKED: USER    Estimated Free Energy of Binding    =   -9.72 kcal/mol  [=(1)+(2)+(3)-(4)]
DOCKED: USER    Estimated Inhibition Constant, Ki   =   74.74 nM (nanomolar)  [Temperature = 298.15 K]
DOCKED: USER    
DOCKED: USER    (1) Final Intermolecular Energy     =  -12.41 kcal/mol
DOCKED: USER        vdW + Hbond + desolv Energy     =  -12.41 kcal/mol
DOCKED: USER        Electrostatic Energy            =   +0.00 kcal/mol
DOCKED: USER    (2) Final Total Internal Energy     =   -1.58 kcal/mol
DOCKED: USER    (3) Torsional Free Energy           =   +2.68 kcal/mol
DOCKED: USER    (4) Unbound System's Energy  [=(2)] =   -1.58 kcal/mol
DOCKED: USER    
DOCKED: USER    
DOCKED: USER    NEWDPF move ligand.pdbqt
DOCKED: USER    NEWDPF about 0.359000 0.163000 0.443000
DOCKED: USER    NEWDPF tran0 26.706577 -17.832781 0.042377
DOCKED: USER    NEWDPF quaternion0 0.322342 0.386333 0.338831 -0.795007
DOCKED: USER    NEWDPF axisangle0 0.531392 0.636882 0.558574 -74.688204
DOCKED: USER    NEWDPF quat0 0.531392 0.636882 0.558574 -74.688204
DOCKED: USER    NEWDPF dihe0 180.00 4.66 48.92 97.14 39.62 38.76 -127.51 -175.82 8.49 
DOCKED: USER  keepresnum = 1 
DOCKED: USER  
DOCKED: REMARK  Name = 
DOCKED: REMARK  9 active torsions:
DOCKED: REMARK  status: ('A' for Active; 'I' for Inactive)
DOCKED: REMARK    1  A    between atoms: O_1  and  N_2
DOCKED: REMARK    2  A    between atoms: C_3  and  C_4
DOCKED: REMARK    3  A    between atoms: C_4  and  C_5
DOCKED: REMARK    4  A    between atoms: C_5  and  C_6
DOCKED: REMARK    5  A    between atoms: C_6  and  C_7
DOCKED: REMARK    6  A    between atoms: C_7  and  C_8
DOCKED: REMARK    7  A    between atoms: C_8  and  C_9
DOCKED: REMARK    8  A    between atoms: C_9  and  C_10
DOCKED: REMARK    9  A    between atoms: N_11  and  O_12
DOCKED: REMARK                            x       y       z     vdW  Elec       q    Type
DOCKED: REMARK                         _______ _______ _______ _____ _____    ______ ____
DOCKED: USER                              x       y       z     vdW  Elec       q    Type
DOCKED: USER                           _______ _______ _______ _____ _____    ______ ____
DOCKED: ROOT
DOCKED: ATOM      1  C   UNL     1      25.798 -17.862  -0.239 -0.66 -0.00    +0.000 C 
DOCKED: ENDROOT
DOCKED: BRANCH   1   2
DOCKED: ATOM      2  C   UNL     1      26.824 -17.077  -1.064 -0.51 -0.00    +0.000 C 
DOCKED: BRANCH   2   3
DOCKED: ATOM      3  C   UNL     1      26.154 -15.928  -1.824 -0.48 -0.00    +0.000 C 
DOCKED: BRANCH   3   5
DOCKED: ATOM      4  N   UNL     1      25.874 -15.674  -4.336 -0.59 -0.00    +0.000 N 
DOCKED: ATOM      5  C   UNL     1      26.735 -15.800  -3.200 -0.40 -0.00    +0.000 C 
DOCKED: ATOM      6  O   UNL     1      27.984 -15.844  -3.359 -0.32 -0.00    +0.000 OA
DOCKED: ATOM      7  H   UNL     1      24.898 -15.676  -4.211 -0.06 -0.00    +0.000 HD
DOCKED: BRANCH   4   8
DOCKED: ATOM      8  O   UNL     1      26.392 -15.554  -5.582 -1.19 +0.00    +0.000 OA
DOCKED: ATOM      9  H   UNL     1      27.361 -15.570  -5.531 -0.05 +0.00    +0.000 HD
DOCKED: ENDBRANCH   4   8
DOCKED: ENDBRANCH   3   5
DOCKED: ENDBRANCH   2   3
DOCKED: ENDBRANCH   1   2
DOCKED: BRANCH   1  10
DOCKED: ATOM     10  C   UNL     1      24.626 -18.329  -1.114 -0.69 -0.00    +0.000 C 
DOCKED: BRANCH  10  11
DOCKED: ATOM     11  C   UNL     1      23.387 -18.739  -0.297 -0.74 -0.00    +0.000 C 
DOCKED: BRANCH  11  12
DOCKED: ATOM     12  C   UNL     1      22.215 -17.748  -0.398 -0.81 -0.00    +0.000 C 
DOCKED: BRANCH  12  13
DOCKED: ATOM     13  C   UNL     1      20.970 -18.378  -0.956 -0.72 -0.00    +0.000 C 
DOCKED: ATOM     14  N   UNL     1      21.055 -19.537  -1.791 -0.67 -0.00    +0.000 N 
DOCKED: ATOM     15  O   UNL     1      19.845 -17.866  -0.708 -1.82 -0.00    +0.000 OA
DOCKED: ATOM     16  H   UNL     1      21.936 -19.922  -2.003 -0.47 -0.00    +0.000 HD
DOCKED: BRANCH  14  17
DOCKED: ATOM     17  O   UNL     1      19.934 -20.109  -2.291 -1.76 -0.00    +0.000 OA
DOCKED: ATOM     18  H   UNL     1      19.163 -19.571  -2.051 -0.46 -0.00    +0.000 HD
DOCKED: ENDBRANCH  14  17
DOCKED: ENDBRANCH  12  13
DOCKED: ENDBRANCH  11  12
DOCKED: ENDBRANCH  10  11
DOCKED: ENDBRANCH   1  10
DOCKED: TORSDOF 9
DOCKED: TER
DOCKED: ENDMDL
________________________________________________________________________________


	BEGINNING GENETIC ALGORITHM DOCKING 57 of 100
Run: 57 Seed: 1026294024 1628739061 [ Run 57 of 100 GA/GALS ]
Beginning LAMARCKIAN GENETIC ALGORITHM (LGA), with a maximum of 2500000 energy evaluations.

Final-Value: -15.047


	FINAL GENETIC ALGORITHM DOCKED STATE
	_______________________________________________


Detailed state:  trans 26.997 -17.172 -0.853 quatxyzw 0.506916 0.370859 0.469664 -0.620416 center 0.359 0.163 0.443 ntor 9 180.0000 -12.4727 -70.8650 165.0473 -87.5455 31.9844 119.7907 165.5982 -2.8527
State:	 26.997 -17.172  -0.853   0.646  0.473  0.599 -103.307    180.00  -12.47  -70.86  165.05  -87.55   31.98  119.79  165.60   -2.85

DOCKED: MODEL       57
DOCKED: USER    Run = 57
DOCKED: USER    DPF = ligand_dock.biased.dpf
DOCKED: USER  
DOCKED: USER    Estimated Free Energy of Binding    =  -10.76 kcal/mol  [=(1)+(2)+(3)-(4)]
DOCKED: USER    Estimated Inhibition Constant, Ki   =   13.07 nM (nanomolar)  [Temperature = 298.15 K]
DOCKED: USER    
DOCKED: USER    (1) Final Intermolecular Energy     =  -13.44 kcal/mol
DOCKED: USER        vdW + Hbond + desolv Energy     =  -13.44 kcal/mol
DOCKED: USER        Electrostatic Energy            =   +0.00 kcal/mol
DOCKED: USER    (2) Final Total Internal Energy     =   -1.61 kcal/mol
DOCKED: USER    (3) Torsional Free Energy           =   +2.68 kcal/mol
DOCKED: USER    (4) Unbound System's Energy  [=(2)] =   -1.61 kcal/mol
DOCKED: USER    
DOCKED: USER    
DOCKED: USER    NEWDPF move ligand.pdbqt
DOCKED: USER    NEWDPF about 0.359000 0.163000 0.443000
DOCKED: USER    NEWDPF tran0 26.997064 -17.171834 -0.852834
DOCKED: USER    NEWDPF quaternion0 0.506916 0.370859 0.469664 -0.620416
DOCKED: USER    NEWDPF axisangle0 0.646351 0.472870 0.598853 -103.306971
DOCKED: USER    NEWDPF quat0 0.646351 0.472870 0.598853 -103.306971
DOCKED: USER    NEWDPF dihe0 180.00 -12.47 -70.86 165.05 -87.55 31.98 119.79 165.60 -2.85 
DOCKED: USER  keepresnum = 1 
DOCKED: USER  
DOCKED: REMARK  Name = 
DOCKED: REMARK  9 active torsions:
DOCKED: REMARK  status: ('A' for Active; 'I' for Inactive)
DOCKED: REMARK    1  A    between atoms: O_1  and  N_2
DOCKED: REMARK    2  A    between atoms: C_3  and  C_4
DOCKED: REMARK    3  A    between atoms: C_4  and  C_5
DOCKED: REMARK    4  A    between atoms: C_5  and  C_6
DOCKED: REMARK    5  A    between atoms: C_6  and  C_7
DOCKED: REMARK    6  A    between atoms: C_7  and  C_8
DOCKED: REMARK    7  A    between atoms: C_8  and  C_9
DOCKED: REMARK    8  A    between atoms: C_9  and  C_10
DOCKED: REMARK    9  A    between atoms: N_11  and  O_12
DOCKED: REMARK                            x       y       z     vdW  Elec       q    Type
DOCKED: REMARK                         _______ _______ _______ _____ _____    ______ ____
DOCKED: USER                              x       y       z     vdW  Elec       q    Type
DOCKED: USER                           _______ _______ _______ _____ _____    ______ ____
DOCKED: ROOT
DOCKED: ATOM      1  C   UNL     1      26.063 -17.248  -1.017 -0.59 -0.00    +0.000 C 
DOCKED: ENDROOT
DOCKED: BRANCH   1   2
DOCKED: ATOM      2  C   UNL     1      26.805 -15.970  -1.425 -0.41 -0.00    +0.000 C 
DOCKED: BRANCH   2   3
DOCKED: ATOM      3  C   UNL     1      27.238 -16.031  -2.893 -0.33 -0.00    +0.000 C 
DOCKED: BRANCH   3   5
DOCKED: ATOM      4  N   UNL     1      25.142 -14.630  -3.203 -0.49 -0.00    +0.000 N 
DOCKED: ATOM      5  C   UNL     1      26.197 -15.409  -3.774 -0.55 -0.00    +0.000 C 
DOCKED: ATOM      6  O   UNL     1      26.231 -15.606  -5.018 -1.07 +0.00    +0.000 OA
DOCKED: ATOM      7  H   UNL     1      25.099 -14.508  -2.227 -0.02 -0.00    +0.000 HD
DOCKED: BRANCH   4   8
DOCKED: ATOM      8  O   UNL     1      24.200 -14.062  -3.993 -1.03 -0.00    +0.000 OA
DOCKED: ATOM      9  H   UNL     1      24.385 -14.277  -4.921 -0.41 -0.00    +0.000 HD
DOCKED: ENDBRANCH   4   8
DOCKED: ENDBRANCH   3   5
DOCKED: ENDBRANCH   2   3
DOCKED: ENDBRANCH   1   2
DOCKED: BRANCH   1  10
DOCKED: ATOM     10  C   UNL     1      24.815 -17.463  -1.886 -0.65 -0.00    +0.000 C 
DOCKED: BRANCH  10  11
DOCKED: ATOM     11  C   UNL     1      23.955 -18.653  -1.424 -0.70 -0.00    +0.000 C 
DOCKED: BRANCH  11  12
DOCKED: ATOM     12  C   UNL     1      22.877 -18.282  -0.391 -0.83 -0.00    +0.000 C 
DOCKED: BRANCH  12  13
DOCKED: ATOM     13  C   UNL     1      21.482 -18.438  -0.927 -0.79 -0.00    +0.000 C 
DOCKED: ATOM     14  N   UNL     1      21.126 -19.591  -1.696 -0.66 -0.00    +0.000 N 
DOCKED: ATOM     15  O   UNL     1      20.627 -17.536  -0.719 -2.11 +0.00    +0.000 OA
DOCKED: ATOM     16  H   UNL     1      21.801 -20.284  -1.878 -0.46 -0.00    +0.000 HD
DOCKED: BRANCH  14  17
DOCKED: ATOM     17  O   UNL     1      19.868 -19.736  -2.177 -1.88 -0.00    +0.000 OA
DOCKED: ATOM     18  H   UNL     1      19.285 -19.086  -1.755 -0.45 -0.00    +0.000 HD
DOCKED: ENDBRANCH  14  17
DOCKED: ENDBRANCH  12  13
DOCKED: ENDBRANCH  11  12
DOCKED: ENDBRANCH  10  11
DOCKED: ENDBRANCH   1  10
DOCKED: TORSDOF 9
DOCKED: TER
DOCKED: ENDMDL
________________________________________________________________________________


	BEGINNING GENETIC ALGORITHM DOCKING 58 of 100
Run: 58 Seed: 482610895 1251633726 [ Run 58 of 100 GA/GALS ]
Beginning LAMARCKIAN GENETIC ALGORITHM (LGA), with a maximum of 2500000 energy evaluations.

Final-Value: -13.503


	FINAL GENETIC ALGORITHM DOCKED STATE
	_______________________________________________


Detailed state:  trans 26.057 -17.018 -2.108 quatxyzw -0.776412 -0.571070 -0.266558 -0.003227 center 0.359 0.163 0.443 ntor 9 179.8002 20.6266 168.3633 179.8726 -87.8636 172.6468 -6.2604 -97.9574 -155.9325
State:	 26.057 -17.018  -2.108  -0.776 -0.571 -0.267 -179.630    179.80   20.63  168.36  179.87  -87.86  172.65   -6.26  -97.96 -155.93

DOCKED: MODEL       58
DOCKED: USER    Run = 58
DOCKED: USER    DPF = ligand_dock.biased.dpf
DOCKED: USER  
DOCKED: USER    Estimated Free Energy of Binding    =   -9.30 kcal/mol  [=(1)+(2)+(3)-(4)]
DOCKED: USER    Estimated Inhibition Constant, Ki   =  153.60 nM (nanomolar)  [Temperature = 298.15 K]
DOCKED: USER    
DOCKED: USER    (1) Final Intermolecular Energy     =  -11.98 kcal/mol
DOCKED: USER        vdW + Hbond + desolv Energy     =  -11.98 kcal/mol
DOCKED: USER        Electrostatic Energy            =   +0.00 kcal/mol
DOCKED: USER    (2) Final Total Internal Energy     =   -1.52 kcal/mol
DOCKED: USER    (3) Torsional Free Energy           =   +2.68 kcal/mol
DOCKED: USER    (4) Unbound System's Energy  [=(2)] =   -1.52 kcal/mol
DOCKED: USER    
DOCKED: USER    
DOCKED: USER    NEWDPF move ligand.pdbqt
DOCKED: USER    NEWDPF about 0.359000 0.163000 0.443000
DOCKED: USER    NEWDPF tran0 26.056815 -17.018210 -2.107717
DOCKED: USER    NEWDPF quaternion0 -0.776412 -0.571070 -0.266558 -0.003227
DOCKED: USER    NEWDPF axisangle0 -0.776416 -0.571073 -0.266560 -179.630237
DOCKED: USER    NEWDPF quat0 -0.776416 -0.571073 -0.266560 -179.630237
DOCKED: USER    NEWDPF dihe0 179.80 20.63 168.36 179.87 -87.86 172.65 -6.26 -97.96 -155.93 
DOCKED: USER  keepresnum = 1 
DOCKED: USER  
DOCKED: REMARK  Name = 
DOCKED: REMARK  9 active torsions:
DOCKED: REMARK  status: ('A' for Active; 'I' for Inactive)
DOCKED: REMARK    1  A    between atoms: O_1  and  N_2
DOCKED: REMARK    2  A    between atoms: C_3  and  C_4
DOCKED: REMARK    3  A    between atoms: C_4  and  C_5
DOCKED: REMARK    4  A    between atoms: C_5  and  C_6
DOCKED: REMARK    5  A    between atoms: C_6  and  C_7
DOCKED: REMARK    6  A    between atoms: C_7  and  C_8
DOCKED: REMARK    7  A    between atoms: C_8  and  C_9
DOCKED: REMARK    8  A    between atoms: C_9  and  C_10
DOCKED: REMARK    9  A    between atoms: N_11  and  O_12
DOCKED: REMARK                            x       y       z     vdW  Elec       q    Type
DOCKED: REMARK                         _______ _______ _______ _____ _____    ______ ____
DOCKED: USER                              x       y       z     vdW  Elec       q    Type
DOCKED: USER                           _______ _______ _______ _____ _____    ______ ____
DOCKED: ROOT
DOCKED: ATOM      1  C   UNL     1      25.648 -17.605  -1.480 -0.55 -0.00    +0.000 C 
DOCKED: ENDROOT
DOCKED: BRANCH   1   2
DOCKED: ATOM      2  C   UNL     1      25.605 -16.090  -1.245 -0.53 -0.00    +0.000 C 
DOCKED: BRANCH   2   3
DOCKED: ATOM      3  C   UNL     1      26.850 -15.409  -1.822 -0.36 -0.00    +0.000 C 
DOCKED: BRANCH   3   5
DOCKED: ATOM      4  N   UNL     1      27.210 -15.632  -4.326 -0.40 -0.00    +0.000 N 
DOCKED: ATOM      5  C   UNL     1      26.596 -14.954  -3.227 -0.43 -0.00    +0.000 C 
DOCKED: ATOM      6  O   UNL     1      25.870 -13.945  -3.436 -0.45 -0.00    +0.000 OA
DOCKED: ATOM      7  H   UNL     1      27.805 -16.398  -4.156 -0.02 -0.00    +0.000 HD
DOCKED: BRANCH   4   8
DOCKED: ATOM      8  O   UNL     1      26.981 -15.229  -5.599 -1.14 +0.00    +0.000 OA
DOCKED: ATOM      9  H   UNL     1      26.376 -14.470  -5.593 -0.04 -0.00    +0.000 HD
DOCKED: ENDBRANCH   4   8
DOCKED: ENDBRANCH   3   5
DOCKED: ENDBRANCH   2   3
DOCKED: ENDBRANCH   1   2
DOCKED: BRANCH   1  10
DOCKED: ATOM     10  C   UNL     1      24.467 -18.303  -0.792 -0.76 -0.00    +0.000 C 
DOCKED: BRANCH  10  11
DOCKED: ATOM     11  C   UNL     1      23.192 -17.441  -0.757 -0.76 -0.00    +0.000 C 
DOCKED: BRANCH  11  12
DOCKED: ATOM     12  C   UNL     1      22.041 -18.058   0.056 -0.72 -0.00    +0.000 C 
DOCKED: BRANCH  12  13
DOCKED: ATOM     13  C   UNL     1      20.944 -18.605  -0.814 -0.83 -0.00    +0.000 C 
DOCKED: ATOM     14  N   UNL     1      21.226 -19.618  -1.785 -0.59 -0.00    +0.000 N 
DOCKED: ATOM     15  O   UNL     1      19.774 -18.149  -0.705 -1.77 -0.00    +0.000 OA
DOCKED: ATOM     16  H   UNL     1      22.145 -19.956  -1.885 -0.45 -0.00    +0.000 HD
DOCKED: BRANCH  14  17
DOCKED: ATOM     17  O   UNL     1      20.238 -20.115  -2.567 -1.68 -0.00    +0.000 OA
DOCKED: ATOM     18  H   UNL     1      19.499 -19.487  -2.590 -0.50 -0.00    +0.000 HD
DOCKED: ENDBRANCH  14  17
DOCKED: ENDBRANCH  12  13
DOCKED: ENDBRANCH  11  12
DOCKED: ENDBRANCH  10  11
DOCKED: ENDBRANCH   1  10
DOCKED: TORSDOF 9
DOCKED: TER
DOCKED: ENDMDL
________________________________________________________________________________


	BEGINNING GENETIC ALGORITHM DOCKING 59 of 100
Run: 59 Seed: 1051019269 1336438494 [ Run 59 of 100 GA/GALS ]
Beginning LAMARCKIAN GENETIC ALGORITHM (LGA), with a maximum of 2500000 energy evaluations.

Final-Value: -12.184


	FINAL GENETIC ALGORITHM DOCKED STATE
	_______________________________________________


Detailed state:  trans 24.344 -17.272 -1.567 quatxyzw -0.727658 0.533322 0.052590 0.428154 center 0.359 0.163 0.443 ntor 9 179.8552 -2.3841 -167.1733 -155.1627 -150.0271 14.4370 -25.4868 -93.0926 148.3120
State:	 24.344 -17.272  -1.567  -0.805  0.590  0.058 129.299    179.86   -2.38 -167.17 -155.16 -150.03   14.44  -25.49  -93.09  148.31

DOCKED: MODEL       59
DOCKED: USER    Run = 59
DOCKED: USER    DPF = ligand_dock.biased.dpf
DOCKED: USER  
DOCKED: USER    Estimated Free Energy of Binding    =   -7.92 kcal/mol  [=(1)+(2)+(3)-(4)]
DOCKED: USER    Estimated Inhibition Constant, Ki   =    1.58 uM (micromolar)  [Temperature = 298.15 K]
DOCKED: USER    
DOCKED: USER    (1) Final Intermolecular Energy     =  -10.60 kcal/mol
DOCKED: USER        vdW + Hbond + desolv Energy     =  -10.60 kcal/mol
DOCKED: USER        Electrostatic Energy            =   +0.00 kcal/mol
DOCKED: USER    (2) Final Total Internal Energy     =   -1.58 kcal/mol
DOCKED: USER    (3) Torsional Free Energy           =   +2.68 kcal/mol
DOCKED: USER    (4) Unbound System's Energy  [=(2)] =   -1.58 kcal/mol
DOCKED: USER    
DOCKED: USER    
DOCKED: USER    NEWDPF move ligand.pdbqt
DOCKED: USER    NEWDPF about 0.359000 0.163000 0.443000
DOCKED: USER    NEWDPF tran0 24.343864 -17.272434 -1.566998
DOCKED: USER    NEWDPF quaternion0 -0.727658 0.533322 0.052590 0.428154
DOCKED: USER    NEWDPF axisangle0 -0.805193 0.590150 0.058194 129.299044
DOCKED: USER    NEWDPF quat0 -0.805193 0.590150 0.058194 129.299044
DOCKED: USER    NEWDPF dihe0 179.86 -2.38 -167.17 -155.16 -150.03 14.44 -25.49 -93.09 148.31 
DOCKED: USER  keepresnum = 1 
DOCKED: USER  
DOCKED: REMARK  Name = 
DOCKED: REMARK  9 active torsions:
DOCKED: REMARK  status: ('A' for Active; 'I' for Inactive)
DOCKED: REMARK    1  A    between atoms: O_1  and  N_2
DOCKED: REMARK    2  A    between atoms: C_3  and  C_4
DOCKED: REMARK    3  A    between atoms: C_4  and  C_5
DOCKED: REMARK    4  A    between atoms: C_5  and  C_6
DOCKED: REMARK    5  A    between atoms: C_6  and  C_7
DOCKED: REMARK    6  A    between atoms: C_7  and  C_8
DOCKED: REMARK    7  A    between atoms: C_8  and  C_9
DOCKED: REMARK    8  A    between atoms: C_9  and  C_10
DOCKED: REMARK    9  A    between atoms: N_11  and  O_12
DOCKED: REMARK                            x       y       z     vdW  Elec       q    Type
DOCKED: REMARK                         _______ _______ _______ _____ _____    ______ ____
DOCKED: USER                              x       y       z     vdW  Elec       q    Type
DOCKED: USER                           _______ _______ _______ _____ _____    ______ ____
DOCKED: ROOT
DOCKED: ATOM      1  C   UNL     1      24.651 -16.491  -1.119 -0.57 -0.00    +0.000 C 
DOCKED: ENDROOT
DOCKED: BRANCH   1   2
DOCKED: ATOM      2  C   UNL     1      25.488 -17.775  -1.069 -0.65 -0.00    +0.000 C 
DOCKED: BRANCH   2   3
DOCKED: ATOM      3  C   UNL     1      24.631 -18.973  -0.650 -0.44 -0.00    +0.000 C 
DOCKED: BRANCH   3   5
DOCKED: ATOM      4  N   UNL     1      22.303 -18.018  -0.309 -0.76 -0.00    +0.000 N 
DOCKED: ATOM      5  C   UNL     1      23.213 -18.787  -1.099 -0.81 -0.00    +0.000 C 
DOCKED: ATOM      6  O   UNL     1      22.814 -19.344  -2.157 -0.69 -0.00    +0.000 OA
DOCKED: ATOM      7  H   UNL     1      22.609 -17.614   0.534 -0.04 -0.00    +0.000 HD
DOCKED: BRANCH   4   8
DOCKED: ATOM      8  O   UNL     1      21.021 -17.841  -0.712 -2.15 -0.00    +0.000 OA
DOCKED: ATOM      9  H   UNL     1      20.883 -18.299  -1.556 -0.06 -0.00    +0.000 HD
DOCKED: ENDBRANCH   4   8
DOCKED: ENDBRANCH   3   5
DOCKED: ENDBRANCH   2   3
DOCKED: ENDBRANCH   1   2
DOCKED: BRANCH   1  10
DOCKED: ATOM     10  C   UNL     1      25.535 -15.249  -0.935 -0.35 -0.00    +0.000 C 
DOCKED: BRANCH  10  11
DOCKED: ATOM     11  C   UNL     1      26.859 -15.551  -0.211 -0.35 -0.00    +0.000 C 
DOCKED: BRANCH  11  12
DOCKED: ATOM     12  C   UNL     1      27.636 -14.296   0.222 -0.26 -0.00    +0.000 C 
DOCKED: BRANCH  12  13
DOCKED: ATOM     13  C   UNL     1      27.369 -13.913   1.650 -0.30 -0.00    +0.000 C 
DOCKED: ATOM     14  N   UNL     1      28.084 -14.544   2.717 -0.32 -0.00    +0.000 N 
DOCKED: ATOM     15  O   UNL     1      26.489 -13.050   1.912 -0.41 -0.00    +0.000 OA
DOCKED: ATOM     16  H   UNL     1      28.754 -15.237   2.512 -1.85 -0.00    +0.000 HD
DOCKED: BRANCH  14  17
DOCKED: ATOM     17  O   UNL     1      27.847 -14.198   4.004 -0.56 -0.00    +0.000 OA
DOCKED: ATOM     18  H   UNL     1      27.193 -13.483   4.031 -0.03 -0.00    +0.000 HD
DOCKED: ENDBRANCH  14  17
DOCKED: ENDBRANCH  12  13
DOCKED: ENDBRANCH  11  12
DOCKED: ENDBRANCH  10  11
DOCKED: ENDBRANCH   1  10
DOCKED: TORSDOF 9
DOCKED: TER
DOCKED: ENDMDL
________________________________________________________________________________


	BEGINNING GENETIC ALGORITHM DOCKING 60 of 100
Run: 60 Seed: 347178318 723807392 [ Run 60 of 100 GA/GALS ]
Beginning LAMARCKIAN GENETIC ALGORITHM (LGA), with a maximum of 2500000 energy evaluations.

Final-Value: -13.314


	FINAL GENETIC ALGORITHM DOCKED STATE
	_______________________________________________


Detailed state:  trans 25.595 -18.436 0.534 quatxyzw -0.006545 -0.118151 0.971882 0.203575 center 0.359 0.163 0.443 ntor 9 -179.0290 -18.2573 -179.6981 -84.0655 -13.4315 134.0221 -162.7344 144.4856 -99.5675
State:	 25.595 -18.436   0.534  -0.007 -0.121  0.993 156.508   -179.03  -18.26 -179.70  -84.07  -13.43  134.02 -162.73  144.49  -99.57

DOCKED: MODEL       60
DOCKED: USER    Run = 60
DOCKED: USER    DPF = ligand_dock.biased.dpf
DOCKED: USER  
DOCKED: USER    Estimated Free Energy of Binding    =   -9.10 kcal/mol  [=(1)+(2)+(3)-(4)]
DOCKED: USER    Estimated Inhibition Constant, Ki   =  212.02 nM (nanomolar)  [Temperature = 298.15 K]
DOCKED: USER    
DOCKED: USER    (1) Final Intermolecular Energy     =  -11.79 kcal/mol
DOCKED: USER        vdW + Hbond + desolv Energy     =  -11.79 kcal/mol
DOCKED: USER        Electrostatic Energy            =   +0.00 kcal/mol
DOCKED: USER    (2) Final Total Internal Energy     =   -1.52 kcal/mol
DOCKED: USER    (3) Torsional Free Energy           =   +2.68 kcal/mol
DOCKED: USER    (4) Unbound System's Energy  [=(2)] =   -1.52 kcal/mol
DOCKED: USER    
DOCKED: USER    
DOCKED: USER    NEWDPF move ligand.pdbqt
DOCKED: USER    NEWDPF about 0.359000 0.163000 0.443000
DOCKED: USER    NEWDPF tran0 25.595037 -18.436097 0.534176
DOCKED: USER    NEWDPF quaternion0 -0.006545 -0.118151 0.971882 0.203575
DOCKED: USER    NEWDPF axisangle0 -0.006685 -0.120678 0.992669 156.507826
DOCKED: USER    NEWDPF quat0 -0.006685 -0.120678 0.992669 156.507826
DOCKED: USER    NEWDPF dihe0 -179.03 -18.26 -179.70 -84.07 -13.43 134.02 -162.73 144.49 -99.57 
DOCKED: USER  keepresnum = 1 
DOCKED: USER  
DOCKED: REMARK  Name = 
DOCKED: REMARK  9 active torsions:
DOCKED: REMARK  status: ('A' for Active; 'I' for Inactive)
DOCKED: REMARK    1  A    between atoms: O_1  and  N_2
DOCKED: REMARK    2  A    between atoms: C_3  and  C_4
DOCKED: REMARK    3  A    between atoms: C_4  and  C_5
DOCKED: REMARK    4  A    between atoms: C_5  and  C_6
DOCKED: REMARK    5  A    between atoms: C_6  and  C_7
DOCKED: REMARK    6  A    between atoms: C_7  and  C_8
DOCKED: REMARK    7  A    between atoms: C_8  and  C_9
DOCKED: REMARK    8  A    between atoms: C_9  and  C_10
DOCKED: REMARK    9  A    between atoms: N_11  and  O_12
DOCKED: REMARK                            x       y       z     vdW  Elec       q    Type
DOCKED: REMARK                         _______ _______ _______ _____ _____    ______ ____
DOCKED: USER                              x       y       z     vdW  Elec       q    Type
DOCKED: USER                           _______ _______ _______ _____ _____    ______ ____
DOCKED: ROOT
DOCKED: ATOM      1  C   UNL     1      25.888 -18.121  -0.315 -0.67 -0.00    +0.000 C 
DOCKED: ENDROOT
DOCKED: BRANCH   1   2
DOCKED: ATOM      2  C   UNL     1      24.389 -18.303  -0.046 -0.67 -0.00    +0.000 C 
DOCKED: BRANCH   2   3
DOCKED: ATOM      3  C   UNL     1      23.552 -17.745  -1.202 -0.75 -0.00    +0.000 C 
DOCKED: BRANCH   3   5
DOCKED: ATOM      4  N   UNL     1      21.684 -19.351  -1.820 -0.59 -0.00    +0.000 N 
DOCKED: ATOM      5  C   UNL     1      22.130 -18.205  -1.090 -0.75 -0.00    +0.000 C 
DOCKED: ATOM      6  O   UNL     1      21.316 -17.554  -0.381 -1.57 -0.00    +0.000 OA
DOCKED: ATOM      7  H   UNL     1      22.314 -19.835  -2.400 -0.53 -0.00    +0.000 HD
DOCKED: BRANCH   4   8
DOCKED: ATOM      8  O   UNL     1      20.402 -19.775  -1.720 -1.71 -0.00    +0.000 OA
DOCKED: ATOM      9  H   UNL     1      19.912 -19.184  -1.125 -0.06 -0.00    +0.000 HD
DOCKED: ENDBRANCH   4   8
DOCKED: ENDBRANCH   3   5
DOCKED: ENDBRANCH   2   3
DOCKED: ENDBRANCH   1   2
DOCKED: BRANCH   1  10
DOCKED: ATOM     10  C   UNL     1      26.130 -17.061  -1.398 -0.55 -0.00    +0.000 C 
DOCKED: BRANCH  10  11
DOCKED: ATOM     11  C   UNL     1      26.263 -15.636  -0.830 -0.42 -0.00    +0.000 C 
DOCKED: BRANCH  11  12
DOCKED: ATOM     12  C   UNL     1      27.540 -15.409  -0.002 -0.32 -0.00    +0.000 C 
DOCKED: BRANCH  12  13
DOCKED: ATOM     13  C   UNL     1      27.319 -14.483   1.161 -0.25 -0.00    +0.000 C 
DOCKED: ATOM     14  N   UNL     1      28.156 -14.562   2.319 -0.27 -0.00    +0.000 N 
DOCKED: ATOM     15  O   UNL     1      26.374 -13.650   1.126 -0.36 -0.00    +0.000 OA
DOCKED: ATOM     16  H   UNL     1      28.878 -15.229   2.355 -1.90 -0.00    +0.000 HD
DOCKED: BRANCH  14  17
DOCKED: ATOM     17  O   UNL     1      27.961 -13.725   3.366 -0.40 -0.00    +0.000 OA
DOCKED: ATOM     18  H   UNL     1      27.432 -12.965   3.078 -0.01 -0.00    +0.000 HD
DOCKED: ENDBRANCH  14  17
DOCKED: ENDBRANCH  12  13
DOCKED: ENDBRANCH  11  12
DOCKED: ENDBRANCH  10  11
DOCKED: ENDBRANCH   1  10
DOCKED: TORSDOF 9
DOCKED: TER
DOCKED: ENDMDL
________________________________________________________________________________


	BEGINNING GENETIC ALGORITHM DOCKING 61 of 100
Run: 61 Seed: 884587498 1351544501 [ Run 61 of 100 GA/GALS ]
Beginning LAMARCKIAN GENETIC ALGORITHM (LGA), with a maximum of 2500000 energy evaluations.

Final-Value: -11.238


	FINAL GENETIC ALGORITHM DOCKED STATE
	_______________________________________________


Detailed state:  trans 26.188 -16.112 -1.615 quatxyzw -0.040147 0.826126 0.169284 -0.535955 center 0.359 0.163 0.443 ntor 9 -180.0000 158.1554 -2.4914 -100.4138 -75.6328 -96.9855 -39.3319 -42.7151 -145.5292
State:	 26.188 -16.112  -1.615  -0.048  0.979  0.201 -115.183   -180.00  158.16   -2.49 -100.41  -75.63  -96.99  -39.33  -42.72 -145.53

DOCKED: MODEL       61
DOCKED: USER    Run = 61
DOCKED: USER    DPF = ligand_dock.biased.dpf
DOCKED: USER  
DOCKED: USER    Estimated Free Energy of Binding    =   -7.59 kcal/mol  [=(1)+(2)+(3)-(4)]
DOCKED: USER    Estimated Inhibition Constant, Ki   =    2.75 uM (micromolar)  [Temperature = 298.15 K]
DOCKED: USER    
DOCKED: USER    (1) Final Intermolecular Energy     =  -10.27 kcal/mol
DOCKED: USER        vdW + Hbond + desolv Energy     =  -10.27 kcal/mol
DOCKED: USER        Electrostatic Energy            =   +0.00 kcal/mol
DOCKED: USER    (2) Final Total Internal Energy     =   -0.97 kcal/mol
DOCKED: USER    (3) Torsional Free Energy           =   +2.68 kcal/mol
DOCKED: USER    (4) Unbound System's Energy  [=(2)] =   -0.97 kcal/mol
DOCKED: USER    
DOCKED: USER    
DOCKED: USER    NEWDPF move ligand.pdbqt
DOCKED: USER    NEWDPF about 0.359000 0.163000 0.443000
DOCKED: USER    NEWDPF tran0 26.187877 -16.112194 -1.614880
DOCKED: USER    NEWDPF quaternion0 -0.040147 0.826126 0.169284 -0.535955
DOCKED: USER    NEWDPF axisangle0 -0.047554 0.978536 0.200514 -115.182626
DOCKED: USER    NEWDPF quat0 -0.047554 0.978536 0.200514 -115.182626
DOCKED: USER    NEWDPF dihe0 -180.00 158.16 -2.49 -100.41 -75.63 -96.99 -39.33 -42.72 -145.53 
DOCKED: USER  keepresnum = 1 
DOCKED: USER  
DOCKED: REMARK  Name = 
DOCKED: REMARK  9 active torsions:
DOCKED: REMARK  status: ('A' for Active; 'I' for Inactive)
DOCKED: REMARK    1  A    between atoms: O_1  and  N_2
DOCKED: REMARK    2  A    between atoms: C_3  and  C_4
DOCKED: REMARK    3  A    between atoms: C_4  and  C_5
DOCKED: REMARK    4  A    between atoms: C_5  and  C_6
DOCKED: REMARK    5  A    between atoms: C_6  and  C_7
DOCKED: REMARK    6  A    between atoms: C_7  and  C_8
DOCKED: REMARK    7  A    between atoms: C_8  and  C_9
DOCKED: REMARK    8  A    between atoms: C_9  and  C_10
DOCKED: REMARK    9  A    between atoms: N_11  and  O_12
DOCKED: REMARK                            x       y       z     vdW  Elec       q    Type
DOCKED: REMARK                         _______ _______ _______ _____ _____    ______ ____
DOCKED: USER                              x       y       z     vdW  Elec       q    Type
DOCKED: USER                           _______ _______ _______ _____ _____    ______ ____
DOCKED: ROOT
DOCKED: ATOM      1  C   UNL     1      25.550 -16.411  -0.974 -0.54 -0.00    +0.000 C 
DOCKED: ENDROOT
DOCKED: BRANCH   1   2
DOCKED: ATOM      2  C   UNL     1      25.287 -16.631  -2.469 -0.55 -0.00    +0.000 C 
DOCKED: BRANCH   2   3
DOCKED: ATOM      3  C   UNL     1      25.137 -15.294  -3.203 -0.42 -0.00    +0.000 C 
DOCKED: BRANCH   3   5
DOCKED: ATOM      4  N   UNL     1      26.569 -15.589  -5.280 -0.48 +0.00    +0.000 N 
DOCKED: ATOM      5  C   UNL     1      26.372 -14.990  -3.997 -0.53 -0.00    +0.000 C 
DOCKED: ATOM      6  O   UNL     1      27.256 -14.234  -3.512 -0.27 -0.00    +0.000 OA
DOCKED: ATOM      7  H   UNL     1      25.892 -16.207  -5.639 -0.10 +0.00    +0.000 HD
DOCKED: BRANCH   4   8
DOCKED: ATOM      8  O   UNL     1      27.680 -15.315  -6.004 -0.94 +0.00    +0.000 OA
DOCKED: ATOM      9  H   UNL     1      28.241 -14.694  -5.512 -0.02 -0.00    +0.000 HD
DOCKED: ENDBRANCH   4   8
DOCKED: ENDBRANCH   3   5
DOCKED: ENDBRANCH   2   3
DOCKED: ENDBRANCH   1   2
DOCKED: BRANCH   1  10
DOCKED: ATOM     10  C   UNL     1      24.816 -17.458  -0.125 -0.45 -0.00    +0.000 C 
DOCKED: BRANCH  10  11
DOCKED: ATOM     11  C   UNL     1      24.921 -18.883  -0.699 -0.44 -0.00    +0.000 C 
DOCKED: BRANCH  11  12
DOCKED: ATOM     12  C   UNL     1      23.566 -19.507  -1.077 -0.57 -0.00    +0.000 C 
DOCKED: BRANCH  12  13
DOCKED: ATOM     13  C   UNL     1      22.402 -18.770  -0.478 -0.83 -0.00    +0.000 C 
DOCKED: ATOM     14  N   UNL     1      21.225 -18.521  -1.253 -0.67 -0.00    +0.000 N 
DOCKED: ATOM     15  O   UNL     1      22.474 -18.344   0.706 -0.70 -0.00    +0.000 OA
DOCKED: ATOM     16  H   UNL     1      21.180 -18.833  -2.186 -0.02 -0.00    +0.000 HD
DOCKED: BRANCH  14  17
DOCKED: ATOM     17  O   UNL     1      20.173 -17.860  -0.714 -2.13 -0.00    +0.000 OA
DOCKED: ATOM     18  H   UNL     1      19.632 -17.481  -1.424 -0.62 -0.00    +0.000 HD
DOCKED: ENDBRANCH  14  17
DOCKED: ENDBRANCH  12  13
DOCKED: ENDBRANCH  11  12
DOCKED: ENDBRANCH  10  11
DOCKED: ENDBRANCH   1  10
DOCKED: TORSDOF 9
DOCKED: TER
DOCKED: ENDMDL
________________________________________________________________________________


	BEGINNING GENETIC ALGORITHM DOCKING 62 of 100
Run: 62 Seed: 910557750 1536388376 [ Run 62 of 100 GA/GALS ]
Beginning LAMARCKIAN GENETIC ALGORITHM (LGA), with a maximum of 2500000 energy evaluations.

Final-Value: -14.298


	FINAL GENETIC ALGORITHM DOCKED STATE
	_______________________________________________


Detailed state:  trans 26.501 -16.985 -2.256 quatxyzw -0.911152 -0.344075 -0.193372 0.118416 center 0.359 0.163 0.443 ntor 9 -180.0000 -4.9595 -99.3809 178.9913 97.0382 78.4088 120.6204 -125.5378 -40.0714
State:	 26.501 -16.985  -2.256  -0.918 -0.347 -0.195 166.399   -180.00   -4.96  -99.38  178.99   97.04   78.41  120.62 -125.54  -40.07

DOCKED: MODEL       62
DOCKED: USER    Run = 62
DOCKED: USER    DPF = ligand_dock.biased.dpf
DOCKED: USER  
DOCKED: USER    Estimated Free Energy of Binding    =  -10.04 kcal/mol  [=(1)+(2)+(3)-(4)]
DOCKED: USER    Estimated Inhibition Constant, Ki   =   43.77 nM (nanomolar)  [Temperature = 298.15 K]
DOCKED: USER    
DOCKED: USER    (1) Final Intermolecular Energy     =  -12.72 kcal/mol
DOCKED: USER        vdW + Hbond + desolv Energy     =  -12.72 kcal/mol
DOCKED: USER        Electrostatic Energy            =   +0.00 kcal/mol
DOCKED: USER    (2) Final Total Internal Energy     =   -1.57 kcal/mol
DOCKED: USER    (3) Torsional Free Energy           =   +2.68 kcal/mol
DOCKED: USER    (4) Unbound System's Energy  [=(2)] =   -1.57 kcal/mol
DOCKED: USER    
DOCKED: USER    
DOCKED: USER    NEWDPF move ligand.pdbqt
DOCKED: USER    NEWDPF about 0.359000 0.163000 0.443000
DOCKED: USER    NEWDPF tran0 26.501168 -16.985330 -2.255905
DOCKED: USER    NEWDPF quaternion0 -0.911152 -0.344075 -0.193372 0.118416
DOCKED: USER    NEWDPF axisangle0 -0.917608 -0.346513 -0.194742 166.398633
DOCKED: USER    NEWDPF quat0 -0.917608 -0.346513 -0.194742 166.398633
DOCKED: USER    NEWDPF dihe0 -180.00 -4.96 -99.38 178.99 97.04 78.41 120.62 -125.54 -40.07 
DOCKED: USER  keepresnum = 1 
DOCKED: USER  
DOCKED: REMARK  Name = 
DOCKED: REMARK  9 active torsions:
DOCKED: REMARK  status: ('A' for Active; 'I' for Inactive)
DOCKED: REMARK    1  A    between atoms: O_1  and  N_2
DOCKED: REMARK    2  A    between atoms: C_3  and  C_4
DOCKED: REMARK    3  A    between atoms: C_4  and  C_5
DOCKED: REMARK    4  A    between atoms: C_5  and  C_6
DOCKED: REMARK    5  A    between atoms: C_6  and  C_7
DOCKED: REMARK    6  A    between atoms: C_7  and  C_8
DOCKED: REMARK    7  A    between atoms: C_8  and  C_9
DOCKED: REMARK    8  A    between atoms: C_9  and  C_10
DOCKED: REMARK    9  A    between atoms: N_11  and  O_12
DOCKED: REMARK                            x       y       z     vdW  Elec       q    Type
DOCKED: REMARK                         _______ _______ _______ _____ _____    ______ ____
DOCKED: USER                              x       y       z     vdW  Elec       q    Type
DOCKED: USER                           _______ _______ _______ _____ _____    ______ ____
DOCKED: ROOT
DOCKED: ATOM      1  C   UNL     1      25.898 -17.163  -1.541 -0.57 -0.00    +0.000 C 
DOCKED: ENDROOT
DOCKED: BRANCH   1   2
DOCKED: ATOM      2  C   UNL     1      26.703 -15.857  -1.551 -0.41 -0.00    +0.000 C 
DOCKED: BRANCH   2   3
DOCKED: ATOM      3  C   UNL     1      25.885 -14.712  -2.155 -0.40 -0.00    +0.000 C 
DOCKED: BRANCH   3   5
DOCKED: ATOM      4  N   UNL     1      26.973 -15.519  -4.304 -0.44 -0.00    +0.000 N 
DOCKED: ATOM      5  C   UNL     1      25.963 -14.744  -3.652 -0.53 -0.00    +0.000 C 
DOCKED: ATOM      6  O   UNL     1      25.160 -14.054  -4.335 -0.90 -0.00    +0.000 OA
DOCKED: ATOM      7  H   UNL     1      27.621 -16.028  -3.766 -0.02 -0.00    +0.000 HD
DOCKED: BRANCH   4   8
DOCKED: ATOM      8  O   UNL     1      27.046 -15.556  -5.656 -1.11 +0.00    +0.000 OA
DOCKED: ATOM      9  H   UNL     1      26.342 -15.004  -6.033 -0.01 +0.00    +0.000 HD
DOCKED: ENDBRANCH   4   8
DOCKED: ENDBRANCH   3   5
DOCKED: ENDBRANCH   2   3
DOCKED: ENDBRANCH   1   2
DOCKED: BRANCH   1  10
DOCKED: ATOM     10  C   UNL     1      24.593 -17.000  -0.748 -0.64 -0.00    +0.000 C 
DOCKED: BRANCH  10  11
DOCKED: ATOM     11  C   UNL     1      23.448 -17.880  -1.282 -0.75 -0.00    +0.000 C 
DOCKED: BRANCH  11  12
DOCKED: ATOM     12  C   UNL     1      22.333 -18.147  -0.256 -0.82 -0.00    +0.000 C 
DOCKED: BRANCH  12  13
DOCKED: ATOM     13  C   UNL     1      21.043 -18.571  -0.899 -0.81 -0.00    +0.000 C 
DOCKED: ATOM     14  N   UNL     1      20.999 -19.723  -1.745 -0.69 -0.00    +0.000 N 
DOCKED: ATOM     15  O   UNL     1      19.999 -17.890  -0.712 -1.97 -0.00    +0.000 OA
DOCKED: ATOM     16  H   UNL     1      21.821 -20.240  -1.909 -0.48 -0.00    +0.000 HD
DOCKED: BRANCH  14  17
DOCKED: ATOM     17  O   UNL     1      19.836 -20.110  -2.322 -1.69 -0.00    +0.000 OA
DOCKED: ATOM     18  H   UNL     1      19.114 -19.548  -2.000 -0.48 -0.00    +0.000 HD
DOCKED: ENDBRANCH  14  17
DOCKED: ENDBRANCH  12  13
DOCKED: ENDBRANCH  11  12
DOCKED: ENDBRANCH  10  11
DOCKED: ENDBRANCH   1  10
DOCKED: TORSDOF 9
DOCKED: TER
DOCKED: ENDMDL
________________________________________________________________________________


	BEGINNING GENETIC ALGORITHM DOCKING 63 of 100
Run: 63 Seed: 306450871 657327757 [ Run 63 of 100 GA/GALS ]
Beginning LAMARCKIAN GENETIC ALGORITHM (LGA), with a maximum of 2500000 energy evaluations.

Final-Value: -14.092


	FINAL GENETIC ALGORITHM DOCKED STATE
	_______________________________________________


Detailed state:  trans 23.575 -17.204 -1.730 quatxyzw -0.368942 0.892957 0.135747 0.219278 center 0.359 0.163 0.443 ntor 9 178.3987 -6.4768 -41.0588 6.8010 -58.4534 -169.6754 -71.1730 158.6577 -91.2473
State:	 23.575 -17.204  -1.730  -0.378  0.915  0.139 154.667    178.40   -6.48  -41.06    6.80  -58.45 -169.68  -71.17  158.66  -91.25

DOCKED: MODEL       63
DOCKED: USER    Run = 63
DOCKED: USER    DPF = ligand_dock.biased.dpf
DOCKED: USER  
DOCKED: USER    Estimated Free Energy of Binding    =   -9.84 kcal/mol  [=(1)+(2)+(3)-(4)]
DOCKED: USER    Estimated Inhibition Constant, Ki   =   60.82 nM (nanomolar)  [Temperature = 298.15 K]
DOCKED: USER    
DOCKED: USER    (1) Final Intermolecular Energy     =  -12.53 kcal/mol
DOCKED: USER        vdW + Hbond + desolv Energy     =  -12.53 kcal/mol
DOCKED: USER        Electrostatic Energy            =   +0.00 kcal/mol
DOCKED: USER    (2) Final Total Internal Energy     =   -1.56 kcal/mol
DOCKED: USER    (3) Torsional Free Energy           =   +2.68 kcal/mol
DOCKED: USER    (4) Unbound System's Energy  [=(2)] =   -1.56 kcal/mol
DOCKED: USER    
DOCKED: USER    
DOCKED: USER    NEWDPF move ligand.pdbqt
DOCKED: USER    NEWDPF about 0.359000 0.163000 0.443000
DOCKED: USER    NEWDPF tran0 23.575211 -17.203862 -1.730267
DOCKED: USER    NEWDPF quaternion0 -0.368942 0.892957 0.135747 0.219278
DOCKED: USER    NEWDPF axisangle0 -0.378145 0.915231 0.139134 154.666777
DOCKED: USER    NEWDPF quat0 -0.378145 0.915231 0.139134 154.666777
DOCKED: USER    NEWDPF dihe0 178.40 -6.48 -41.06 6.80 -58.45 -169.68 -71.17 158.66 -91.25 
DOCKED: USER  keepresnum = 1 
DOCKED: USER  
DOCKED: REMARK  Name = 
DOCKED: REMARK  9 active torsions:
DOCKED: REMARK  status: ('A' for Active; 'I' for Inactive)
DOCKED: REMARK    1  A    between atoms: O_1  and  N_2
DOCKED: REMARK    2  A    between atoms: C_3  and  C_4
DOCKED: REMARK    3  A    between atoms: C_4  and  C_5
DOCKED: REMARK    4  A    between atoms: C_5  and  C_6
DOCKED: REMARK    5  A    between atoms: C_6  and  C_7
DOCKED: REMARK    6  A    between atoms: C_7  and  C_8
DOCKED: REMARK    7  A    between atoms: C_8  and  C_9
DOCKED: REMARK    8  A    between atoms: C_9  and  C_10
DOCKED: REMARK    9  A    between atoms: N_11  and  O_12
DOCKED: REMARK                            x       y       z     vdW  Elec       q    Type
DOCKED: REMARK                         _______ _______ _______ _____ _____    ______ ____
DOCKED: USER                              x       y       z     vdW  Elec       q    Type
DOCKED: USER                           _______ _______ _______ _____ _____    ______ ____
DOCKED: ROOT
DOCKED: ATOM      1  C   UNL     1      24.210 -17.010  -1.048 -0.68 -0.00    +0.000 C 
DOCKED: ENDROOT
DOCKED: BRANCH   1   2
DOCKED: ATOM      2  C   UNL     1      23.480 -18.360  -1.048 -0.81 -0.00    +0.000 C 
DOCKED: BRANCH   2   3
DOCKED: ATOM      3  C   UNL     1      22.262 -18.325  -0.121 -0.82 -0.00    +0.000 C 
DOCKED: BRANCH   3   5
DOCKED: ATOM      4  N   UNL     1      21.008 -19.709  -1.843 -0.66 -0.00    +0.000 N 
DOCKED: ATOM      5  C   UNL     1      21.012 -18.648  -0.884 -0.83 -0.00    +0.000 C 
DOCKED: ATOM      6  O   UNL     1      19.975 -17.955  -0.707 -1.95 -0.00    +0.000 OA
DOCKED: ATOM      7  H   UNL     1      21.831 -20.224  -2.005 -0.50 -0.00    +0.000 HD
DOCKED: BRANCH   4   8
DOCKED: ATOM      8  O   UNL     1      19.882 -20.009  -2.533 -1.67 -0.00    +0.000 OA
DOCKED: ATOM      9  H   UNL     1      19.161 -19.428  -2.241 -0.49 -0.00    +0.000 HD
DOCKED: ENDBRANCH   4   8
DOCKED: ENDBRANCH   3   5
DOCKED: ENDBRANCH   2   3
DOCKED: ENDBRANCH   1   2
DOCKED: BRANCH   1  10
DOCKED: ATOM     10  C   UNL     1      25.568 -17.117  -0.339 -0.54 -0.00    +0.000 C 
DOCKED: BRANCH  10  11
DOCKED: ATOM     11  C   UNL     1      26.744 -17.310  -1.313 -0.48 -0.00    +0.000 C 
DOCKED: BRANCH  11  12
DOCKED: ATOM     12  C   UNL     1      27.264 -16.000  -1.932 -0.36 -0.00    +0.000 C 
DOCKED: BRANCH  12  13
DOCKED: ATOM     13  C   UNL     1      26.538 -15.627  -3.193 -0.46 -0.00    +0.000 C 
DOCKED: ATOM     14  N   UNL     1      27.225 -15.606  -4.448 -0.42 -0.00    +0.000 N 
DOCKED: ATOM     15  O   UNL     1      25.320 -15.306  -3.141 -0.62 -0.00    +0.000 OA
DOCKED: ATOM     16  H   UNL     1      28.183 -15.833  -4.483 -0.02 -0.00    +0.000 HD
DOCKED: BRANCH  14  17
DOCKED: ATOM     17  O   UNL     1      26.571 -15.274  -5.586 -1.15 +0.00    +0.000 OA
DOCKED: ATOM     18  H   UNL     1      25.624 -15.179  -5.398 -0.07 -0.00    +0.000 HD
DOCKED: ENDBRANCH  14  17
DOCKED: ENDBRANCH  12  13
DOCKED: ENDBRANCH  11  12
DOCKED: ENDBRANCH  10  11
DOCKED: ENDBRANCH   1  10
DOCKED: TORSDOF 9
DOCKED: TER
DOCKED: ENDMDL
________________________________________________________________________________


	BEGINNING GENETIC ALGORITHM DOCKING 64 of 100
Run: 64 Seed: 727341678 1988009685 [ Run 64 of 100 GA/GALS ]
Beginning LAMARCKIAN GENETIC ALGORITHM (LGA), with a maximum of 2500000 energy evaluations.

Final-Value: -14.036


	FINAL GENETIC ALGORITHM DOCKED STATE
	_______________________________________________


Detailed state:  trans 26.506 -16.547 -2.138 quatxyzw -0.842057 -0.401790 -0.284706 -0.220109 center 0.359 0.163 0.443 ntor 9 179.7974 23.1610 -173.2027 172.6101 -166.0528 153.8771 48.2115 -81.6317 -106.9669
State:	 26.506 -16.547  -2.138  -0.863 -0.412 -0.292 -154.569    179.80   23.16 -173.20  172.61 -166.05  153.88   48.21  -81.63 -106.97

DOCKED: MODEL       64
DOCKED: USER    Run = 64
DOCKED: USER    DPF = ligand_dock.biased.dpf
DOCKED: USER  
DOCKED: USER    Estimated Free Energy of Binding    =   -9.69 kcal/mol  [=(1)+(2)+(3)-(4)]
DOCKED: USER    Estimated Inhibition Constant, Ki   =   79.48 nM (nanomolar)  [Temperature = 298.15 K]
DOCKED: USER    
DOCKED: USER    (1) Final Intermolecular Energy     =  -12.37 kcal/mol
DOCKED: USER        vdW + Hbond + desolv Energy     =  -12.37 kcal/mol
DOCKED: USER        Electrostatic Energy            =   +0.00 kcal/mol
DOCKED: USER    (2) Final Total Internal Energy     =   -1.67 kcal/mol
DOCKED: USER    (3) Torsional Free Energy           =   +2.68 kcal/mol
DOCKED: USER    (4) Unbound System's Energy  [=(2)] =   -1.67 kcal/mol
DOCKED: USER    
DOCKED: USER    
DOCKED: USER    NEWDPF move ligand.pdbqt
DOCKED: USER    NEWDPF about 0.359000 0.163000 0.443000
DOCKED: USER    NEWDPF tran0 26.506236 -16.546799 -2.138083
DOCKED: USER    NEWDPF quaternion0 -0.842057 -0.401790 -0.284706 -0.220109
DOCKED: USER    NEWDPF axisangle0 -0.863227 -0.411891 -0.291864 -154.569180
DOCKED: USER    NEWDPF quat0 -0.863227 -0.411891 -0.291864 -154.569180
DOCKED: USER    NEWDPF dihe0 179.80 23.16 -173.20 172.61 -166.05 153.88 48.21 -81.63 -106.97 
DOCKED: USER  keepresnum = 1 
DOCKED: USER  
DOCKED: REMARK  Name = 
DOCKED: REMARK  9 active torsions:
DOCKED: REMARK  status: ('A' for Active; 'I' for Inactive)
DOCKED: REMARK    1  A    between atoms: O_1  and  N_2
DOCKED: REMARK    2  A    between atoms: C_3  and  C_4
DOCKED: REMARK    3  A    between atoms: C_4  and  C_5
DOCKED: REMARK    4  A    between atoms: C_5  and  C_6
DOCKED: REMARK    5  A    between atoms: C_6  and  C_7
DOCKED: REMARK    6  A    between atoms: C_7  and  C_8
DOCKED: REMARK    7  A    between atoms: C_8  and  C_9
DOCKED: REMARK    8  A    between atoms: C_9  and  C_10
DOCKED: REMARK    9  A    between atoms: N_11  and  O_12
DOCKED: REMARK                            x       y       z     vdW  Elec       q    Type
DOCKED: REMARK                         _______ _______ _______ _____ _____    ______ ____
DOCKED: USER                              x       y       z     vdW  Elec       q    Type
DOCKED: USER                           _______ _______ _______ _____ _____    ______ ____
DOCKED: ROOT
DOCKED: ATOM      1  C   UNL     1      26.085 -17.284  -1.708 -0.46 -0.00    +0.000 C 
DOCKED: ENDROOT
DOCKED: BRANCH   1   2
DOCKED: ATOM      2  C   UNL     1      26.500 -16.058  -0.884 -0.45 -0.00    +0.000 C 
DOCKED: BRANCH   2   3
DOCKED: ATOM      3  C   UNL     1      26.609 -14.813  -1.769 -0.34 -0.00    +0.000 C 
DOCKED: BRANCH   3   5
DOCKED: ATOM      4  N   UNL     1      26.716 -15.592  -4.185 -0.47 -0.00    +0.000 N 
DOCKED: ATOM      5  C   UNL     1      25.958 -15.055  -3.098 -0.50 -0.00    +0.000 C 
DOCKED: ATOM      6  O   UNL     1      24.747 -14.746  -3.267 -0.74 -0.00    +0.000 OA
DOCKED: ATOM      7  H   UNL     1      27.670 -15.798  -4.059 -0.02 -0.00    +0.000 HD
DOCKED: BRANCH   4   8
DOCKED: ATOM      8  O   UNL     1      26.133 -15.817  -5.386 -1.13 +0.00    +0.000 OA
DOCKED: ATOM      9  H   UNL     1      25.197 -15.565  -5.343 -0.09 -0.00    +0.000 HD
DOCKED: ENDBRANCH   4   8
DOCKED: ENDBRANCH   3   5
DOCKED: ENDBRANCH   2   3
DOCKED: ENDBRANCH   1   2
DOCKED: BRANCH   1  10
DOCKED: ATOM     10  C   UNL     1      24.917 -18.026  -1.043 -0.71 -0.00    +0.000 C 
DOCKED: BRANCH  10  11
DOCKED: ATOM     11  C   UNL     1      23.547 -17.393  -1.348 -0.66 -0.00    +0.000 C 
DOCKED: BRANCH  11  12
DOCKED: ATOM     12  C   UNL     1      22.457 -17.732  -0.317 -0.80 -0.00    +0.000 C 
DOCKED: BRANCH  12  13
DOCKED: ATOM     13  C   UNL     1      21.238 -18.348  -0.943 -0.74 -0.00    +0.000 C 
DOCKED: ATOM     14  N   UNL     1      21.363 -19.465  -1.828 -0.58 -0.00    +0.000 N 
DOCKED: ATOM     15  O   UNL     1      20.100 -17.860  -0.709 -2.06 +0.00    +0.000 OA
DOCKED: ATOM     16  H   UNL     1      22.255 -19.831  -2.030 -0.46 -0.00    +0.000 HD
DOCKED: BRANCH  14  17
DOCKED: ATOM     17  O   UNL     1      20.266 -20.025  -2.391 -1.74 -0.00    +0.000 OA
DOCKED: ATOM     18  H   UNL     1      19.545 -19.375  -2.406 -0.42 -0.00    +0.000 HD
DOCKED: ENDBRANCH  14  17
DOCKED: ENDBRANCH  12  13
DOCKED: ENDBRANCH  11  12
DOCKED: ENDBRANCH  10  11
DOCKED: ENDBRANCH   1  10
DOCKED: TORSDOF 9
DOCKED: TER
DOCKED: ENDMDL
________________________________________________________________________________


	BEGINNING GENETIC ALGORITHM DOCKING 65 of 100
Run: 65 Seed: 1524263279 2117361858 [ Run 65 of 100 GA/GALS ]
Beginning LAMARCKIAN GENETIC ALGORITHM (LGA), with a maximum of 2500000 energy evaluations.

Final-Value: -13.079


	FINAL GENETIC ALGORITHM DOCKED STATE
	_______________________________________________


Detailed state:  trans 23.800 -18.461 -0.567 quatxyzw 0.249680 0.271757 -0.922110 0.116282 center 0.359 0.163 0.443 ntor 9 -180.0000 -3.4972 -162.0828 24.1736 90.3207 -37.7477 35.4829 -68.4534 -144.3572
State:	 23.800 -18.461  -0.567   0.251  0.274 -0.928 166.645   -180.00   -3.50 -162.08   24.17   90.32  -37.75   35.48  -68.45 -144.36

DOCKED: MODEL       65
DOCKED: USER    Run = 65
DOCKED: USER    DPF = ligand_dock.biased.dpf
DOCKED: USER  
DOCKED: USER    Estimated Free Energy of Binding    =   -8.68 kcal/mol  [=(1)+(2)+(3)-(4)]
DOCKED: USER    Estimated Inhibition Constant, Ki   =  437.29 nM (nanomolar)  [Temperature = 298.15 K]
DOCKED: USER    
DOCKED: USER    (1) Final Intermolecular Energy     =  -11.36 kcal/mol
DOCKED: USER        vdW + Hbond + desolv Energy     =  -11.36 kcal/mol
DOCKED: USER        Electrostatic Energy            =   +0.00 kcal/mol
DOCKED: USER    (2) Final Total Internal Energy     =   -1.72 kcal/mol
DOCKED: USER    (3) Torsional Free Energy           =   +2.68 kcal/mol
DOCKED: USER    (4) Unbound System's Energy  [=(2)] =   -1.72 kcal/mol
DOCKED: USER    
DOCKED: USER    
DOCKED: USER    NEWDPF move ligand.pdbqt
DOCKED: USER    NEWDPF about 0.359000 0.163000 0.443000
DOCKED: USER    NEWDPF tran0 23.800161 -18.461014 -0.566522
DOCKED: USER    NEWDPF quaternion0 0.249680 0.271757 -0.922110 0.116282
DOCKED: USER    NEWDPF axisangle0 0.251385 0.273613 -0.928408 166.644806
DOCKED: USER    NEWDPF quat0 0.251385 0.273613 -0.928408 166.644806
DOCKED: USER    NEWDPF dihe0 -180.00 -3.50 -162.08 24.17 90.32 -37.75 35.48 -68.45 -144.36 
DOCKED: USER  keepresnum = 1 
DOCKED: USER  
DOCKED: REMARK  Name = 
DOCKED: REMARK  9 active torsions:
DOCKED: REMARK  status: ('A' for Active; 'I' for Inactive)
DOCKED: REMARK    1  A    between atoms: O_1  and  N_2
DOCKED: REMARK    2  A    between atoms: C_3  and  C_4
DOCKED: REMARK    3  A    between atoms: C_4  and  C_5
DOCKED: REMARK    4  A    between atoms: C_5  and  C_6
DOCKED: REMARK    5  A    between atoms: C_6  and  C_7
DOCKED: REMARK    6  A    between atoms: C_7  and  C_8
DOCKED: REMARK    7  A    between atoms: C_8  and  C_9
DOCKED: REMARK    8  A    between atoms: C_9  and  C_10
DOCKED: REMARK    9  A    between atoms: N_11  and  O_12
DOCKED: REMARK                            x       y       z     vdW  Elec       q    Type
DOCKED: REMARK                         _______ _______ _______ _____ _____    ______ ____
DOCKED: USER                              x       y       z     vdW  Elec       q    Type
DOCKED: USER                           _______ _______ _______ _____ _____    ______ ____
DOCKED: ROOT
DOCKED: ATOM      1  C   UNL     1      24.552 -18.211  -1.093 -0.74 -0.00    +0.000 C 
DOCKED: ENDROOT
DOCKED: BRANCH   1   2
DOCKED: ATOM      2  C   UNL     1      23.247 -17.412  -1.203 -0.66 -0.00    +0.000 C 
DOCKED: BRANCH   2   3
DOCKED: ATOM      3  C   UNL     1      22.265 -17.810  -0.096 -0.74 -0.00    +0.000 C 
DOCKED: BRANCH   3   5
DOCKED: ATOM      4  N   UNL     1      20.290 -18.709  -1.416 -0.56 -0.00    +0.000 N 
DOCKED: ATOM      5  C   UNL     1      21.400 -18.948  -0.547 -0.86 -0.00    +0.000 C 
DOCKED: ATOM      6  O   UNL     1      21.630 -20.114  -0.126 -0.53 -0.00    +0.000 OA
DOCKED: ATOM      7  H   UNL     1      20.092 -17.792  -1.714 -0.45 -0.00    +0.000 HD
DOCKED: BRANCH   4   8
DOCKED: ATOM      8  O   UNL     1      19.506 -19.733  -1.831 -1.67 -0.00    +0.000 OA
DOCKED: ATOM      9  H   UNL     1      19.833 -20.564  -1.450 -0.59 -0.00    +0.000 HD
DOCKED: ENDBRANCH   4   8
DOCKED: ENDBRANCH   3   5
DOCKED: ENDBRANCH   2   3
DOCKED: ENDBRANCH   1   2
DOCKED: BRANCH   1  10
DOCKED: ATOM     10  C   UNL     1      25.762 -17.344  -1.469 -0.59 -0.00    +0.000 C 
DOCKED: BRANCH  10  11
DOCKED: ATOM     11  C   UNL     1      25.716 -15.938  -0.842 -0.46 -0.00    +0.000 C 
DOCKED: BRANCH  11  12
DOCKED: ATOM     12  C   UNL     1      26.287 -14.831  -1.746 -0.37 -0.00    +0.000 C 
DOCKED: BRANCH  12  13
DOCKED: ATOM     13  C   UNL     1      25.832 -14.956  -3.172 -0.52 -0.00    +0.000 C 
DOCKED: ATOM     14  N   UNL     1      26.665 -15.590  -4.147 -0.47 -0.00    +0.000 N 
DOCKED: ATOM     15  O   UNL     1      24.720 -14.474  -3.518 -0.88 -0.00    +0.000 OA
DOCKED: ATOM     16  H   UNL     1      27.544 -15.945  -3.881 -0.02 -0.00    +0.000 HD
DOCKED: BRANCH  14  17
DOCKED: ATOM     17  O   UNL     1      26.254 -15.707  -5.433 -1.17 +0.00    +0.000 OA
DOCKED: ATOM     18  H   UNL     1      25.352 -15.360  -5.516 -0.08 -0.00    +0.000 HD
DOCKED: ENDBRANCH  14  17
DOCKED: ENDBRANCH  12  13
DOCKED: ENDBRANCH  11  12
DOCKED: ENDBRANCH  10  11
DOCKED: ENDBRANCH   1  10
DOCKED: TORSDOF 9
DOCKED: TER
DOCKED: ENDMDL
________________________________________________________________________________


	BEGINNING GENETIC ALGORITHM DOCKING 66 of 100
Run: 66 Seed: 1461068278 643871095 [ Run 66 of 100 GA/GALS ]
Beginning LAMARCKIAN GENETIC ALGORITHM (LGA), with a maximum of 2500000 energy evaluations.

Final-Value: -12.392


	FINAL GENETIC ALGORITHM DOCKED STATE
	_______________________________________________


Detailed state:  trans 26.354 -16.244 -1.998 quatxyzw 0.528496 0.837853 0.123314 0.059057 center 0.359 0.163 0.443 ntor 9 180.0000 106.6796 -160.6049 -1.9116 -99.4400 -179.7885 -9.7460 43.2280 -108.1257
State:	 26.354 -16.244  -1.998   0.529  0.839  0.124 173.229    180.00  106.68 -160.60   -1.91  -99.44 -179.79   -9.75   43.23 -108.13

DOCKED: MODEL       66
DOCKED: USER    Run = 66
DOCKED: USER    DPF = ligand_dock.biased.dpf
DOCKED: USER  
DOCKED: USER    Estimated Free Energy of Binding    =   -8.48 kcal/mol  [=(1)+(2)+(3)-(4)]
DOCKED: USER    Estimated Inhibition Constant, Ki   =  604.55 nM (nanomolar)  [Temperature = 298.15 K]
DOCKED: USER    
DOCKED: USER    (1) Final Intermolecular Energy     =  -11.17 kcal/mol
DOCKED: USER        vdW + Hbond + desolv Energy     =  -11.17 kcal/mol
DOCKED: USER        Electrostatic Energy            =   +0.00 kcal/mol
DOCKED: USER    (2) Final Total Internal Energy     =   -1.22 kcal/mol
DOCKED: USER    (3) Torsional Free Energy           =   +2.68 kcal/mol
DOCKED: USER    (4) Unbound System's Energy  [=(2)] =   -1.22 kcal/mol
DOCKED: USER    
DOCKED: USER    
DOCKED: USER    NEWDPF move ligand.pdbqt
DOCKED: USER    NEWDPF about 0.359000 0.163000 0.443000
DOCKED: USER    NEWDPF tran0 26.353583 -16.244148 -1.997928
DOCKED: USER    NEWDPF quaternion0 0.528496 0.837853 0.123314 0.059057
DOCKED: USER    NEWDPF axisangle0 0.529420 0.839318 0.123530 173.228643
DOCKED: USER    NEWDPF quat0 0.529420 0.839318 0.123530 173.228643
DOCKED: USER    NEWDPF dihe0 180.00 106.68 -160.60 -1.91 -99.44 -179.79 -9.75 43.23 -108.13 
DOCKED: USER  keepresnum = 1 
DOCKED: USER  
DOCKED: REMARK  Name = 
DOCKED: REMARK  9 active torsions:
DOCKED: REMARK  status: ('A' for Active; 'I' for Inactive)
DOCKED: REMARK    1  A    between atoms: O_1  and  N_2
DOCKED: REMARK    2  A    between atoms: C_3  and  C_4
DOCKED: REMARK    3  A    between atoms: C_4  and  C_5
DOCKED: REMARK    4  A    between atoms: C_5  and  C_6
DOCKED: REMARK    5  A    between atoms: C_6  and  C_7
DOCKED: REMARK    6  A    between atoms: C_7  and  C_8
DOCKED: REMARK    7  A    between atoms: C_8  and  C_9
DOCKED: REMARK    8  A    between atoms: C_9  and  C_10
DOCKED: REMARK    9  A    between atoms: N_11  and  O_12
DOCKED: REMARK                            x       y       z     vdW  Elec       q    Type
DOCKED: REMARK                         _______ _______ _______ _____ _____    ______ ____
DOCKED: USER                              x       y       z     vdW  Elec       q    Type
DOCKED: USER                           _______ _______ _______ _____ _____    ______ ____
DOCKED: ROOT
DOCKED: ATOM      1  C   UNL     1      26.500 -16.768  -1.217 -0.51 -0.00    +0.000 C 
DOCKED: ENDROOT
DOCKED: BRANCH   1   2
DOCKED: ATOM      2  C   UNL     1      25.441 -15.659  -1.201 -0.46 -0.00    +0.000 C 
DOCKED: BRANCH   2   3
DOCKED: ATOM      3  C   UNL     1      25.878 -14.470  -2.062 -0.34 -0.00    +0.000 C 
DOCKED: BRANCH   3   5
DOCKED: ATOM      4  N   UNL     1      26.464 -15.607  -4.257 -0.51 -0.00    +0.000 N 
DOCKED: ATOM      5  C   UNL     1      25.604 -14.742  -3.511 -0.55 -0.00    +0.000 C 
DOCKED: ATOM      6  O   UNL     1      24.634 -14.173  -4.081 -1.10 -0.00    +0.000 OA
DOCKED: ATOM      7  H   UNL     1      27.240 -16.021  -3.817 -0.02 -0.00    +0.000 HD
DOCKED: BRANCH   4   8
DOCKED: ATOM      8  O   UNL     1      26.219 -15.861  -5.564 -1.13 +0.00    +0.000 OA
DOCKED: ATOM      9  H   UNL     1      25.423 -15.379  -5.843 -0.02 +0.00    +0.000 HD
DOCKED: ENDBRANCH   4   8
DOCKED: ENDBRANCH   3   5
DOCKED: ENDBRANCH   2   3
DOCKED: ENDBRANCH   1   2
DOCKED: BRANCH   1  10
DOCKED: ATOM     10  C   UNL     1      26.168 -17.863  -0.193 -0.63 -0.00    +0.000 C 
DOCKED: BRANCH  10  11
DOCKED: ATOM     11  C   UNL     1      25.114 -18.865  -0.699 -0.39 -0.00    +0.000 C 
DOCKED: BRANCH  11  12
DOCKED: ATOM     12  C   UNL     1      24.067 -18.248  -1.643 -0.68 -0.00    +0.000 C 
DOCKED: BRANCH  12  13
DOCKED: ATOM     13  C   UNL     1      22.786 -17.900  -0.940 -0.79 -0.00    +0.000 C 
DOCKED: ATOM     14  N   UNL     1      21.541 -18.441  -1.390 -0.56 -0.00    +0.000 N 
DOCKED: ATOM     15  O   UNL     1      22.806 -17.104   0.038 -0.64 -0.00    +0.000 OA
DOCKED: ATOM     16  H   UNL     1      21.524 -19.043  -2.169 -0.07 -0.00    +0.000 HD
DOCKED: BRANCH  14  17
DOCKED: ATOM     17  O   UNL     1      20.386 -18.132  -0.754 -2.19 -0.00    +0.000 OA
DOCKED: ATOM     18  H   UNL     1      19.870 -17.520  -1.302 -0.58 -0.00    +0.000 HD
DOCKED: ENDBRANCH  14  17
DOCKED: ENDBRANCH  12  13
DOCKED: ENDBRANCH  11  12
DOCKED: ENDBRANCH  10  11
DOCKED: ENDBRANCH   1  10
DOCKED: TORSDOF 9
DOCKED: TER
DOCKED: ENDMDL
________________________________________________________________________________


	BEGINNING GENETIC ALGORITHM DOCKING 67 of 100
Run: 67 Seed: 1123883 1401465393 [ Run 67 of 100 GA/GALS ]
Beginning LAMARCKIAN GENETIC ALGORITHM (LGA), with a maximum of 2500000 energy evaluations.

Final-Value: -13.428


	FINAL GENETIC ALGORITHM DOCKED STATE
	_______________________________________________


Detailed state:  trans 26.244 -16.442 -1.882 quatxyzw 0.138445 0.744822 0.249570 -0.603148 center 0.359 0.163 0.443 ntor 9 -178.5716 -12.5636 -179.5518 -154.4972 -49.2913 173.5647 -10.6219 -89.5771 77.8811
State:	 26.244 -16.442  -1.882   0.174  0.934  0.313 -105.809   -178.57  -12.56 -179.55 -154.50  -49.29  173.56  -10.62  -89.58   77.88

DOCKED: MODEL       67
DOCKED: USER    Run = 67
DOCKED: USER    DPF = ligand_dock.biased.dpf
DOCKED: USER  
DOCKED: USER    Estimated Free Energy of Binding    =   -9.29 kcal/mol  [=(1)+(2)+(3)-(4)]
DOCKED: USER    Estimated Inhibition Constant, Ki   =  155.79 nM (nanomolar)  [Temperature = 298.15 K]
DOCKED: USER    
DOCKED: USER    (1) Final Intermolecular Energy     =  -11.97 kcal/mol
DOCKED: USER        vdW + Hbond + desolv Energy     =  -11.97 kcal/mol
DOCKED: USER        Electrostatic Energy            =   +0.00 kcal/mol
DOCKED: USER    (2) Final Total Internal Energy     =   -1.46 kcal/mol
DOCKED: USER    (3) Torsional Free Energy           =   +2.68 kcal/mol
DOCKED: USER    (4) Unbound System's Energy  [=(2)] =   -1.46 kcal/mol
DOCKED: USER    
DOCKED: USER    
DOCKED: USER    NEWDPF move ligand.pdbqt
DOCKED: USER    NEWDPF about 0.359000 0.163000 0.443000
DOCKED: USER    NEWDPF tran0 26.243950 -16.441595 -1.882343
DOCKED: USER    NEWDPF quaternion0 0.138445 0.744822 0.249570 -0.603148
DOCKED: USER    NEWDPF axisangle0 0.173571 0.933795 0.312889 -105.808575
DOCKED: USER    NEWDPF quat0 0.173571 0.933795 0.312889 -105.808575
DOCKED: USER    NEWDPF dihe0 -178.57 -12.56 -179.55 -154.50 -49.29 173.56 -10.62 -89.58 77.88 
DOCKED: USER  keepresnum = 1 
DOCKED: USER  
DOCKED: REMARK  Name = 
DOCKED: REMARK  9 active torsions:
DOCKED: REMARK  status: ('A' for Active; 'I' for Inactive)
DOCKED: REMARK    1  A    between atoms: O_1  and  N_2
DOCKED: REMARK    2  A    between atoms: C_3  and  C_4
DOCKED: REMARK    3  A    between atoms: C_4  and  C_5
DOCKED: REMARK    4  A    between atoms: C_5  and  C_6
DOCKED: REMARK    5  A    between atoms: C_6  and  C_7
DOCKED: REMARK    6  A    between atoms: C_7  and  C_8
DOCKED: REMARK    7  A    between atoms: C_8  and  C_9
DOCKED: REMARK    8  A    between atoms: C_9  and  C_10
DOCKED: REMARK    9  A    between atoms: N_11  and  O_12
DOCKED: REMARK                            x       y       z     vdW  Elec       q    Type
DOCKED: REMARK                         _______ _______ _______ _____ _____    ______ ____
DOCKED: USER                              x       y       z     vdW  Elec       q    Type
DOCKED: USER                           _______ _______ _______ _____ _____    ______ ____
DOCKED: ROOT
DOCKED: ATOM      1  C   UNL     1      25.462 -16.772  -1.453 -0.60 -0.00    +0.000 C 
DOCKED: ENDROOT
DOCKED: BRANCH   1   2
DOCKED: ATOM      2  C   UNL     1      25.416 -16.410  -2.942 -0.45 -0.00    +0.000 C 
DOCKED: BRANCH   2   3
DOCKED: ATOM      3  C   UNL     1      26.300 -15.195  -3.240 -0.49 -0.00    +0.000 C 
DOCKED: BRANCH   3   5
DOCKED: ATOM      4  N   UNL     1      28.533 -15.925  -4.205 -0.30 -0.00    +0.000 N 
DOCKED: ATOM      5  C   UNL     1      27.193 -15.470  -4.412 -0.42 -0.00    +0.000 C 
DOCKED: ATOM      6  O   UNL     1      26.772 -15.262  -5.581 -1.17 +0.00    +0.000 OA
DOCKED: ATOM      7  H   UNL     1      28.870 -16.052  -3.290 -0.01 -0.00    +0.000 HD
DOCKED: BRANCH   4   8
DOCKED: ATOM      8  O   UNL     1      29.344 -16.180  -5.260 -0.36 -0.00    +0.000 OA
DOCKED: ATOM      9  H   UNL     1      28.871 -15.983  -6.085 -0.04 -0.00    +0.000 HD
DOCKED: ENDBRANCH   4   8
DOCKED: ENDBRANCH   3   5
DOCKED: ENDBRANCH   2   3
DOCKED: ENDBRANCH   1   2
DOCKED: BRANCH   1  10
DOCKED: ATOM     10  C   UNL     1      24.404 -17.831  -1.109 -0.75 -0.00    +0.000 C 
DOCKED: BRANCH  10  11
DOCKED: ATOM     11  C   UNL     1      23.078 -17.223  -0.618 -0.71 -0.00    +0.000 C 
DOCKED: BRANCH  11  12
DOCKED: ATOM     12  C   UNL     1      22.138 -18.236   0.059 -0.79 -0.00    +0.000 C 
DOCKED: BRANCH  12  13
DOCKED: ATOM     13  C   UNL     1      20.981 -18.627  -0.816 -0.84 -0.00    +0.000 C 
DOCKED: ATOM     14  N   UNL     1      21.129 -19.661  -1.794 -0.62 -0.00    +0.000 N 
DOCKED: ATOM     15  O   UNL     1      19.881 -18.022  -0.706 -1.87 -0.00    +0.000 OA
DOCKED: ATOM     16  H   UNL     1      21.996 -20.116  -1.896 -0.49 -0.00    +0.000 HD
DOCKED: BRANCH  14  17
DOCKED: ATOM     17  O   UNL     1      20.086 -20.018  -2.581 -1.65 -0.00    +0.000 OA
DOCKED: ATOM     18  H   UNL     1      19.270 -19.629  -2.231 -0.40 -0.00    +0.000 HD
DOCKED: ENDBRANCH  14  17
DOCKED: ENDBRANCH  12  13
DOCKED: ENDBRANCH  11  12
DOCKED: ENDBRANCH  10  11
DOCKED: ENDBRANCH   1  10
DOCKED: TORSDOF 9
DOCKED: TER
DOCKED: ENDMDL
________________________________________________________________________________


	BEGINNING GENETIC ALGORITHM DOCKING 68 of 100
Run: 68 Seed: 2115559934 1748679983 [ Run 68 of 100 GA/GALS ]
Beginning LAMARCKIAN GENETIC ALGORITHM (LGA), with a maximum of 2500000 energy evaluations.

Final-Value: -13.229


	FINAL GENETIC ALGORITHM DOCKED STATE
	_______________________________________________


Detailed state:  trans 24.531 -16.467 -2.775 quatxyzw -0.952093 -0.101392 0.077533 -0.277897 center 0.359 0.163 0.443 ntor 9 -112.3293 23.9551 -149.9603 -15.0149 83.7938 -165.6600 -115.2307 29.4948 34.6689
State:	 24.531 -16.467  -2.775  -0.991 -0.106  0.081 -147.731   -112.33   23.96 -149.96  -15.01   83.79 -165.66 -115.23   29.49   34.67

DOCKED: MODEL       68
DOCKED: USER    Run = 68
DOCKED: USER    DPF = ligand_dock.biased.dpf
DOCKED: USER  
DOCKED: USER    Estimated Free Energy of Binding    =   -9.34 kcal/mol  [=(1)+(2)+(3)-(4)]
DOCKED: USER    Estimated Inhibition Constant, Ki   =  142.70 nM (nanomolar)  [Temperature = 298.15 K]
DOCKED: USER    
DOCKED: USER    (1) Final Intermolecular Energy     =  -12.02 kcal/mol
DOCKED: USER        vdW + Hbond + desolv Energy     =  -12.02 kcal/mol
DOCKED: USER        Electrostatic Energy            =   +0.00 kcal/mol
DOCKED: USER    (2) Final Total Internal Energy     =   -1.21 kcal/mol
DOCKED: USER    (3) Torsional Free Energy           =   +2.68 kcal/mol
DOCKED: USER    (4) Unbound System's Energy  [=(2)] =   -1.21 kcal/mol
DOCKED: USER    
DOCKED: USER    
DOCKED: USER    NEWDPF move ligand.pdbqt
DOCKED: USER    NEWDPF about 0.359000 0.163000 0.443000
DOCKED: USER    NEWDPF tran0 24.531271 -16.466944 -2.774885
DOCKED: USER    NEWDPF quaternion0 -0.952093 -0.101392 0.077533 -0.277897
DOCKED: USER    NEWDPF axisangle0 -0.991133 -0.105549 0.080712 -147.730522
DOCKED: USER    NEWDPF quat0 -0.991133 -0.105549 0.080712 -147.730522
DOCKED: USER    NEWDPF dihe0 -112.33 23.96 -149.96 -15.01 83.79 -165.66 -115.23 29.49 34.67 
DOCKED: USER  keepresnum = 1 
DOCKED: USER  
DOCKED: REMARK  Name = 
DOCKED: REMARK  9 active torsions:
DOCKED: REMARK  status: ('A' for Active; 'I' for Inactive)
DOCKED: REMARK    1  A    between atoms: O_1  and  N_2
DOCKED: REMARK    2  A    between atoms: C_3  and  C_4
DOCKED: REMARK    3  A    between atoms: C_4  and  C_5
DOCKED: REMARK    4  A    between atoms: C_5  and  C_6
DOCKED: REMARK    5  A    between atoms: C_6  and  C_7
DOCKED: REMARK    6  A    between atoms: C_7  and  C_8
DOCKED: REMARK    7  A    between atoms: C_8  and  C_9
DOCKED: REMARK    8  A    between atoms: C_9  and  C_10
DOCKED: REMARK    9  A    between atoms: N_11  and  O_12
DOCKED: REMARK                            x       y       z     vdW  Elec       q    Type
DOCKED: REMARK                         _______ _______ _______ _____ _____    ______ ____
DOCKED: USER                              x       y       z     vdW  Elec       q    Type
DOCKED: USER                           _______ _______ _______ _____ _____    ______ ____
DOCKED: ROOT
DOCKED: ATOM      1  C   UNL     1      24.387 -17.027  -2.019 -0.47 -0.00    +0.000 C 
DOCKED: ENDROOT
DOCKED: BRANCH   1   2
DOCKED: ATOM      2  C   UNL     1      25.645 -16.153  -2.089 -0.55 -0.00    +0.000 C 
DOCKED: BRANCH   2   3
DOCKED: ATOM      3  C   UNL     1      26.868 -16.907  -1.557 -0.45 -0.00    +0.000 C 
DOCKED: BRANCH   3   5
DOCKED: ATOM      4  N   UNL     1      27.498 -15.243   0.256 -0.29 -0.00    +0.000 N 
DOCKED: ATOM      5  C   UNL     1      27.108 -16.568  -0.116 -0.42 -0.00    +0.000 C 
DOCKED: ATOM      6  O   UNL     1      27.004 -17.465   0.763 -0.38 -0.00    +0.000 OA
DOCKED: ATOM      7  H   UNL     1      27.613 -14.555  -0.437 +0.00 -0.00    +0.000 HD
DOCKED: BRANCH   4   8
DOCKED: ATOM      8  O   UNL     1      27.712 -14.929   1.557 -0.35 -0.00    +0.000 OA
DOCKED: ATOM      9  H   UNL     1      28.499 -15.398   1.876 -1.30 -0.00    +0.000 HD
DOCKED: ENDBRANCH   4   8
DOCKED: ENDBRANCH   3   5
DOCKED: ENDBRANCH   2   3
DOCKED: ENDBRANCH   1   2
DOCKED: BRANCH   1  10
DOCKED: ATOM     10  C   UNL     1      24.005 -17.330  -0.563 -0.67 -0.00    +0.000 C 
DOCKED: BRANCH  10  11
DOCKED: ATOM     11  C   UNL     1      23.604 -18.799  -0.337 -0.70 -0.00    +0.000 C 
DOCKED: BRANCH  11  12
DOCKED: ATOM     12  C   UNL     1      22.627 -19.351  -1.389 -0.64 -0.00    +0.000 C 
DOCKED: BRANCH  12  13
DOCKED: ATOM     13  C   UNL     1      21.194 -19.024  -1.077 -0.86 -0.00    +0.000 C 
DOCKED: ATOM     14  N   UNL     1      20.174 -20.017  -1.226 -0.76 -0.00    +0.000 N 
DOCKED: ATOM     15  O   UNL     1      20.885 -17.860  -0.705 -2.23 -0.00    +0.000 OA
DOCKED: ATOM     16  H   UNL     1      20.414 -20.919  -1.540 -0.47 -0.00    +0.000 HD
DOCKED: BRANCH  14  17
DOCKED: ATOM     17  O   UNL     1      18.883 -19.725  -0.941 -0.89 -0.00    +0.000 OA
DOCKED: ATOM     18  H   UNL     1      18.743 -18.769  -1.019 -0.59 -0.00    +0.000 HD
DOCKED: ENDBRANCH  14  17
DOCKED: ENDBRANCH  12  13
DOCKED: ENDBRANCH  11  12
DOCKED: ENDBRANCH  10  11
DOCKED: ENDBRANCH   1  10
DOCKED: TORSDOF 9
DOCKED: TER
DOCKED: ENDMDL
________________________________________________________________________________


	BEGINNING GENETIC ALGORITHM DOCKING 69 of 100
Run: 69 Seed: 1030326995 1625743672 [ Run 69 of 100 GA/GALS ]
Beginning LAMARCKIAN GENETIC ALGORITHM (LGA), with a maximum of 2500000 energy evaluations.

Final-Value: -14.010


	FINAL GENETIC ALGORITHM DOCKED STATE
	_______________________________________________


Detailed state:  trans 25.834 -15.431 -2.219 quatxyzw 0.854084 0.246503 -0.009596 0.457914 center 0.359 0.163 0.443 ntor 9 -153.5017 -2.7222 121.2839 -93.6663 47.3748 118.4178 -165.5751 -160.9640 -63.5354
State:	 25.834 -15.431  -2.219   0.961  0.277 -0.011 125.495   -153.50   -2.72  121.28  -93.67   47.37  118.42 -165.58 -160.96  -63.54

DOCKED: MODEL       69
DOCKED: USER    Run = 69
DOCKED: USER    DPF = ligand_dock.biased.dpf
DOCKED: USER  
DOCKED: USER    Estimated Free Energy of Binding    =   -9.91 kcal/mol  [=(1)+(2)+(3)-(4)]
DOCKED: USER    Estimated Inhibition Constant, Ki   =   54.60 nM (nanomolar)  [Temperature = 298.15 K]
DOCKED: USER    
DOCKED: USER    (1) Final Intermolecular Energy     =  -12.59 kcal/mol
DOCKED: USER        vdW + Hbond + desolv Energy     =  -12.59 kcal/mol
DOCKED: USER        Electrostatic Energy            =   +0.00 kcal/mol
DOCKED: USER    (2) Final Total Internal Energy     =   -1.42 kcal/mol
DOCKED: USER    (3) Torsional Free Energy           =   +2.68 kcal/mol
DOCKED: USER    (4) Unbound System's Energy  [=(2)] =   -1.42 kcal/mol
DOCKED: USER    
DOCKED: USER    
DOCKED: USER    NEWDPF move ligand.pdbqt
DOCKED: USER    NEWDPF about 0.359000 0.163000 0.443000
DOCKED: USER    NEWDPF tran0 25.833966 -15.431074 -2.219211
DOCKED: USER    NEWDPF quaternion0 0.854084 0.246503 -0.009596 0.457914
DOCKED: USER    NEWDPF axisangle0 0.960728 0.277282 -0.010794 125.494825
DOCKED: USER    NEWDPF quat0 0.960728 0.277282 -0.010794 125.494825
DOCKED: USER    NEWDPF dihe0 -153.50 -2.72 121.28 -93.67 47.37 118.42 -165.58 -160.96 -63.54 
DOCKED: USER  keepresnum = 1 
DOCKED: USER  
DOCKED: REMARK  Name = 
DOCKED: REMARK  9 active torsions:
DOCKED: REMARK  status: ('A' for Active; 'I' for Inactive)
DOCKED: REMARK    1  A    between atoms: O_1  and  N_2
DOCKED: REMARK    2  A    between atoms: C_3  and  C_4
DOCKED: REMARK    3  A    between atoms: C_4  and  C_5
DOCKED: REMARK    4  A    between atoms: C_5  and  C_6
DOCKED: REMARK    5  A    between atoms: C_6  and  C_7
DOCKED: REMARK    6  A    between atoms: C_7  and  C_8
DOCKED: REMARK    7  A    between atoms: C_8  and  C_9
DOCKED: REMARK    8  A    between atoms: C_9  and  C_10
DOCKED: REMARK    9  A    between atoms: N_11  and  O_12
DOCKED: REMARK                            x       y       z     vdW  Elec       q    Type
DOCKED: REMARK                         _______ _______ _______ _____ _____    ______ ____
DOCKED: USER                              x       y       z     vdW  Elec       q    Type
DOCKED: USER                           _______ _______ _______ _____ _____    ______ ____
DOCKED: ROOT
DOCKED: ATOM      1  C   UNL     1      25.761 -16.281  -1.798 -0.55 -0.00    +0.000 C 
DOCKED: ENDROOT
DOCKED: BRANCH   1   2
DOCKED: ATOM      2  C   UNL     1      26.753 -15.245  -1.254 -0.36 -0.00    +0.000 C 
DOCKED: BRANCH   2   3
DOCKED: ATOM      3  C   UNL     1      27.319 -15.684   0.100 -0.34 -0.00    +0.000 C 
DOCKED: BRANCH   3   5
DOCKED: ATOM      4  N   UNL     1      28.161 -14.518   2.193 -0.28 -0.00    +0.000 N 
DOCKED: ATOM      5  C   UNL     1      27.258 -14.556   1.085 -0.20 -0.00    +0.000 C 
DOCKED: ATOM      6  O   UNL     1      26.381 -13.660   0.956 -0.37 -0.00    +0.000 OA
DOCKED: ATOM      7  H   UNL     1      28.822 -15.238   2.309 -1.85 -0.00    +0.000 HD
DOCKED: BRANCH   4   8
DOCKED: ATOM      8  O   UNL     1      28.115 -13.499   3.084 -0.34 -0.00    +0.000 OA
DOCKED: ATOM      9  H   UNL     1      27.218 -13.128   3.103 -0.02 -0.00    +0.000 HD
DOCKED: ENDBRANCH   4   8
DOCKED: ENDBRANCH   3   5
DOCKED: ENDBRANCH   2   3
DOCKED: ENDBRANCH   1   2
DOCKED: BRANCH   1  10
DOCKED: ATOM     10  C   UNL     1      25.322 -17.256  -0.696 -0.64 -0.00    +0.000 C 
DOCKED: BRANCH  10  11
DOCKED: ATOM     11  C   UNL     1      23.793 -17.331  -0.530 -0.67 -0.00    +0.000 C 
DOCKED: BRANCH  11  12
DOCKED: ATOM     12  C   UNL     1      23.216 -18.748  -0.687 -0.82 -0.00    +0.000 C 
DOCKED: BRANCH  12  13
DOCKED: ATOM     13  C   UNL     1      21.745 -18.744  -0.996 -0.83 -0.00    +0.000 C 
DOCKED: ATOM     14  N   UNL     1      21.184 -19.732  -1.865 -0.54 -0.00    +0.000 N 
DOCKED: ATOM     15  O   UNL     1      21.006 -17.848  -0.506 -2.03 -0.00    +0.000 OA
DOCKED: ATOM     16  H   UNL     1      21.766 -20.417  -2.266 -0.54 -0.00    +0.000 HD
DOCKED: BRANCH  14  17
DOCKED: ATOM     17  O   UNL     1      19.858 -19.732  -2.141 -1.87 -0.00    +0.000 OA
DOCKED: ATOM     18  H   UNL     1      19.424 -19.025  -1.638 -0.35 -0.00    +0.000 HD
DOCKED: ENDBRANCH  14  17
DOCKED: ENDBRANCH  12  13
DOCKED: ENDBRANCH  11  12
DOCKED: ENDBRANCH  10  11
DOCKED: ENDBRANCH   1  10
DOCKED: TORSDOF 9
DOCKED: TER
DOCKED: ENDMDL
________________________________________________________________________________


	BEGINNING GENETIC ALGORITHM DOCKING 70 of 100
Run: 70 Seed: 313215725 233464333 [ Run 70 of 100 GA/GALS ]
Beginning LAMARCKIAN GENETIC ALGORITHM (LGA), with a maximum of 2500000 energy evaluations.

Final-Value: -13.903


	FINAL GENETIC ALGORITHM DOCKED STATE
	_______________________________________________


Detailed state:  trans 24.909 -19.164 0.004 quatxyzw -0.059651 -0.503815 0.848516 0.150438 center 0.359 0.163 0.443 ntor 9 -159.6637 -6.5363 -176.1182 63.5659 -4.2993 -178.1328 -112.8707 -138.1212 26.7755
State:	 24.909 -19.164   0.004  -0.060 -0.510  0.858 162.695   -159.66   -6.54 -176.12   63.57   -4.30 -178.13 -112.87 -138.12   26.78

DOCKED: MODEL       70
DOCKED: USER    Run = 70
DOCKED: USER    DPF = ligand_dock.biased.dpf
DOCKED: USER  
DOCKED: USER    Estimated Free Energy of Binding    =   -9.63 kcal/mol  [=(1)+(2)+(3)-(4)]
DOCKED: USER    Estimated Inhibition Constant, Ki   =   86.88 nM (nanomolar)  [Temperature = 298.15 K]
DOCKED: USER    
DOCKED: USER    (1) Final Intermolecular Energy     =  -12.32 kcal/mol
DOCKED: USER        vdW + Hbond + desolv Energy     =  -12.32 kcal/mol
DOCKED: USER        Electrostatic Energy            =   +0.00 kcal/mol
DOCKED: USER    (2) Final Total Internal Energy     =   -1.59 kcal/mol
DOCKED: USER    (3) Torsional Free Energy           =   +2.68 kcal/mol
DOCKED: USER    (4) Unbound System's Energy  [=(2)] =   -1.59 kcal/mol
DOCKED: USER    
DOCKED: USER    
DOCKED: USER    NEWDPF move ligand.pdbqt
DOCKED: USER    NEWDPF about 0.359000 0.163000 0.443000
DOCKED: USER    NEWDPF tran0 24.909397 -19.163909 0.004408
DOCKED: USER    NEWDPF quaternion0 -0.059651 -0.503815 0.848516 0.150438
DOCKED: USER    NEWDPF axisangle0 -0.060338 -0.509615 0.858284 162.695380
DOCKED: USER    NEWDPF quat0 -0.060338 -0.509615 0.858284 162.695380
DOCKED: USER    NEWDPF dihe0 -159.66 -6.54 -176.12 63.57 -4.30 -178.13 -112.87 -138.12 26.78 
DOCKED: USER  keepresnum = 1 
DOCKED: USER  
DOCKED: REMARK  Name = 
DOCKED: REMARK  9 active torsions:
DOCKED: REMARK  status: ('A' for Active; 'I' for Inactive)
DOCKED: REMARK    1  A    between atoms: O_1  and  N_2
DOCKED: REMARK    2  A    between atoms: C_3  and  C_4
DOCKED: REMARK    3  A    between atoms: C_4  and  C_5
DOCKED: REMARK    4  A    between atoms: C_5  and  C_6
DOCKED: REMARK    5  A    between atoms: C_6  and  C_7
DOCKED: REMARK    6  A    between atoms: C_7  and  C_8
DOCKED: REMARK    7  A    between atoms: C_8  and  C_9
DOCKED: REMARK    8  A    between atoms: C_9  and  C_10
DOCKED: REMARK    9  A    between atoms: N_11  and  O_12
DOCKED: REMARK                            x       y       z     vdW  Elec       q    Type
DOCKED: REMARK                         _______ _______ _______ _____ _____    ______ ____
DOCKED: USER                              x       y       z     vdW  Elec       q    Type
DOCKED: USER                           _______ _______ _______ _____ _____    ______ ____
DOCKED: ROOT
DOCKED: ATOM      1  C   UNL     1      25.197 -18.335  -0.365 -0.69 -0.00    +0.000 C 
DOCKED: ENDROOT
DOCKED: BRANCH   1   2
DOCKED: ATOM      2  C   UNL     1      23.698 -18.611  -0.190 -0.71 -0.00    +0.000 C 
DOCKED: BRANCH   2   3
DOCKED: ATOM      3  C   UNL     1      22.907 -18.138  -1.414 -0.67 -0.00    +0.000 C 
DOCKED: BRANCH   3   5
DOCKED: ATOM      4  N   UNL     1      20.971 -19.733  -1.815 -0.69 -0.00    +0.000 N 
DOCKED: ATOM      5  C   UNL     1      21.459 -18.502  -1.275 -0.43 -0.00    +0.000 C 
DOCKED: ATOM      6  O   UNL     1      20.664 -17.702  -0.714 -2.23 -0.00    +0.000 OA
DOCKED: ATOM      7  H   UNL     1      21.589 -20.340  -2.284 -0.55 -0.00    +0.000 HD
DOCKED: BRANCH   4   8
DOCKED: ATOM      8  O   UNL     1      19.665 -20.070  -1.690 -1.52 -0.00    +0.000 OA
DOCKED: ATOM      9  H   UNL     1      19.142 -19.273  -1.511 -0.51 -0.00    +0.000 HD
DOCKED: ENDBRANCH   4   8
DOCKED: ENDBRANCH   3   5
DOCKED: ENDBRANCH   2   3
DOCKED: ENDBRANCH   1   2
DOCKED: BRANCH   1  10
DOCKED: ATOM     10  C   UNL     1      25.486 -16.827  -0.343 -0.43 -0.00    +0.000 C 
DOCKED: BRANCH  10  11
DOCKED: ATOM     11  C   UNL     1      26.622 -16.416  -1.298 -0.47 -0.00    +0.000 C 
DOCKED: BRANCH  11  12
DOCKED: ATOM     12  C   UNL     1      26.432 -15.029  -1.936 -0.38 -0.00    +0.000 C 
DOCKED: BRANCH  12  13
DOCKED: ATOM     13  C   UNL     1      25.823 -15.101  -3.307 -0.54 -0.00    +0.000 C 
DOCKED: ATOM     14  N   UNL     1      26.461 -15.850  -4.346 -0.39 -0.00    +0.000 N 
DOCKED: ATOM     15  O   UNL     1      24.757 -14.475  -3.552 -0.90 -0.00    +0.000 OA
DOCKED: ATOM     16  H   UNL     1      27.307 -16.319  -4.160 -0.02 -0.00    +0.000 HD
DOCKED: BRANCH  14  17
DOCKED: ATOM     17  O   UNL     1      25.912 -15.920  -5.582 -1.12 +0.00    +0.000 OA
DOCKED: ATOM     18  H   UNL     1      25.039 -15.496  -5.571 -0.07 -0.00    +0.000 HD
DOCKED: ENDBRANCH  14  17
DOCKED: ENDBRANCH  12  13
DOCKED: ENDBRANCH  11  12
DOCKED: ENDBRANCH  10  11
DOCKED: ENDBRANCH   1  10
DOCKED: TORSDOF 9
DOCKED: TER
DOCKED: ENDMDL
________________________________________________________________________________


	BEGINNING GENETIC ALGORITHM DOCKING 71 of 100
Run: 71 Seed: 479269071 694632083 [ Run 71 of 100 GA/GALS ]
Beginning LAMARCKIAN GENETIC ALGORITHM (LGA), with a maximum of 2500000 energy evaluations.

Final-Value: -13.620


	FINAL GENETIC ALGORITHM DOCKED STATE
	_______________________________________________


Detailed state:  trans 25.121 -18.663 0.210 quatxyzw -0.022507 -0.247155 0.954462 0.165558 center 0.359 0.163 0.443 ntor 9 -161.2323 169.5442 123.1329 177.8568 9.3694 155.3077 -98.2717 -137.7571 -118.6137
State:	 25.121 -18.663   0.210  -0.023 -0.251  0.968 160.941   -161.23  169.54  123.13  177.86    9.37  155.31  -98.27 -137.76 -118.61

DOCKED: MODEL       71
DOCKED: USER    Run = 71
DOCKED: USER    DPF = ligand_dock.biased.dpf
DOCKED: USER  
DOCKED: USER    Estimated Free Energy of Binding    =   -9.95 kcal/mol  [=(1)+(2)+(3)-(4)]
DOCKED: USER    Estimated Inhibition Constant, Ki   =   50.56 nM (nanomolar)  [Temperature = 298.15 K]
DOCKED: USER    
DOCKED: USER    (1) Final Intermolecular Energy     =  -12.64 kcal/mol
DOCKED: USER        vdW + Hbond + desolv Energy     =  -12.64 kcal/mol
DOCKED: USER        Electrostatic Energy            =   +0.00 kcal/mol
DOCKED: USER    (2) Final Total Internal Energy     =   -0.98 kcal/mol
DOCKED: USER    (3) Torsional Free Energy           =   +2.68 kcal/mol
DOCKED: USER    (4) Unbound System's Energy  [=(2)] =   -0.98 kcal/mol
DOCKED: USER    
DOCKED: USER    
DOCKED: USER    NEWDPF move ligand.pdbqt
DOCKED: USER    NEWDPF about 0.359000 0.163000 0.443000
DOCKED: USER    NEWDPF tran0 25.120620 -18.663139 0.209931
DOCKED: USER    NEWDPF quaternion0 -0.022507 -0.247155 0.954462 0.165558
DOCKED: USER    NEWDPF axisangle0 -0.022822 -0.250613 0.967818 160.940729
DOCKED: USER    NEWDPF quat0 -0.022822 -0.250613 0.967818 160.940729
DOCKED: USER    NEWDPF dihe0 -161.23 169.54 123.13 177.86 9.37 155.31 -98.27 -137.76 -118.61 
DOCKED: USER  keepresnum = 1 
DOCKED: USER  
DOCKED: REMARK  Name = 
DOCKED: REMARK  9 active torsions:
DOCKED: REMARK  status: ('A' for Active; 'I' for Inactive)
DOCKED: REMARK    1  A    between atoms: O_1  and  N_2
DOCKED: REMARK    2  A    between atoms: C_3  and  C_4
DOCKED: REMARK    3  A    between atoms: C_4  and  C_5
DOCKED: REMARK    4  A    between atoms: C_5  and  C_6
DOCKED: REMARK    5  A    between atoms: C_6  and  C_7
DOCKED: REMARK    6  A    between atoms: C_7  and  C_8
DOCKED: REMARK    7  A    between atoms: C_8  and  C_9
DOCKED: REMARK    8  A    between atoms: C_9  and  C_10
DOCKED: REMARK    9  A    between atoms: N_11  and  O_12
DOCKED: REMARK                            x       y       z     vdW  Elec       q    Type
DOCKED: REMARK                         _______ _______ _______ _____ _____    ______ ____
DOCKED: USER                              x       y       z     vdW  Elec       q    Type
DOCKED: USER                           _______ _______ _______ _____ _____    ______ ____
DOCKED: ROOT
DOCKED: ATOM      1  C   UNL     1      25.418 -18.157  -0.540 -0.69 -0.00    +0.000 C 
DOCKED: ENDROOT
DOCKED: BRANCH   1   2
DOCKED: ATOM      2  C   UNL     1      23.915 -18.306  -0.269 -0.76 -0.00    +0.000 C 
DOCKED: BRANCH   2   3
DOCKED: ATOM      3  C   UNL     1      23.196 -18.911  -1.479 -0.77 -0.00    +0.000 C 
DOCKED: BRANCH   3   5
DOCKED: ATOM      4  N   UNL     1      20.857 -19.785  -1.944 -0.60 -0.00    +0.000 N 
DOCKED: ATOM      5  C   UNL     1      21.710 -18.837  -1.297 -0.67 -0.00    +0.000 C 
DOCKED: ATOM      6  O   UNL     1      21.210 -17.912  -0.602 -1.92 -0.00    +0.000 OA
DOCKED: ATOM      7  H   UNL     1      21.249 -20.485  -2.515 -0.53 -0.00    +0.000 HD
DOCKED: BRANCH   4   8
DOCKED: ATOM      8  O   UNL     1      19.514 -19.727  -1.781 -1.66 -0.00    +0.000 OA
DOCKED: ATOM      9  H   UNL     1      19.266 -18.846  -1.457 -0.45 -0.00    +0.000 HD
DOCKED: ENDBRANCH   4   8
DOCKED: ENDBRANCH   3   5
DOCKED: ENDBRANCH   2   3
DOCKED: ENDBRANCH   1   2
DOCKED: BRANCH   1  10
DOCKED: ATOM     10  C   UNL     1      25.713 -16.869  -1.321 -0.59 -0.00    +0.000 C 
DOCKED: BRANCH  10  11
DOCKED: ATOM     11  C   UNL     1      25.501 -15.594  -0.485 -0.16 -0.00    +0.000 C 
DOCKED: BRANCH  11  12
DOCKED: ATOM     12  C   UNL     1      26.472 -14.451  -0.831 -0.33 -0.00    +0.000 C 
DOCKED: BRANCH  12  13
DOCKED: ATOM     13  C   UNL     1      27.258 -13.978   0.358 -0.28 -0.00    +0.000 C 
DOCKED: ATOM     14  N   UNL     1      28.053 -14.897   1.114 -0.26 -0.00    +0.000 N 
DOCKED: ATOM     15  O   UNL     1      27.196 -12.769   0.709 -0.25 -0.00    +0.000 OA
DOCKED: ATOM     16  H   UNL     1      28.082 -15.846   0.853 -0.42 -0.00    +0.000 HD
DOCKED: BRANCH  14  17
DOCKED: ATOM     17  O   UNL     1      28.766 -14.473   2.184 -0.29 -0.00    +0.000 OA
DOCKED: ATOM     18  H   UNL     1      29.107 -15.240   2.669 -2.01 -0.00    +0.000 HD
DOCKED: ENDBRANCH  14  17
DOCKED: ENDBRANCH  12  13
DOCKED: ENDBRANCH  11  12
DOCKED: ENDBRANCH  10  11
DOCKED: ENDBRANCH   1  10
DOCKED: TORSDOF 9
DOCKED: TER
DOCKED: ENDMDL
________________________________________________________________________________


	BEGINNING GENETIC ALGORITHM DOCKING 72 of 100
Run: 72 Seed: 523823523 1784315147 [ Run 72 of 100 GA/GALS ]
Beginning LAMARCKIAN GENETIC ALGORITHM (LGA), with a maximum of 2500000 energy evaluations.

Final-Value: -13.958


	FINAL GENETIC ALGORITHM DOCKED STATE
	_______________________________________________


Detailed state:  trans 23.017 -17.189 -1.128 quatxyzw 0.428261 -0.531383 -0.378232 -0.625433 center 0.359 0.163 0.443 ntor 9 174.0565 -31.9724 12.8629 145.4669 -101.6350 115.0038 -10.9722 -179.6629 59.3581
State:	 23.017 -17.189  -1.128   0.549 -0.681 -0.485 -102.572    174.06  -31.97   12.86  145.47 -101.63  115.00  -10.97 -179.66   59.36

DOCKED: MODEL       72
DOCKED: USER    Run = 72
DOCKED: USER    DPF = ligand_dock.biased.dpf
DOCKED: USER  
DOCKED: USER    Estimated Free Energy of Binding    =   -9.90 kcal/mol  [=(1)+(2)+(3)-(4)]
DOCKED: USER    Estimated Inhibition Constant, Ki   =   55.63 nM (nanomolar)  [Temperature = 298.15 K]
DOCKED: USER    
DOCKED: USER    (1) Final Intermolecular Energy     =  -12.58 kcal/mol
DOCKED: USER        vdW + Hbond + desolv Energy     =  -12.58 kcal/mol
DOCKED: USER        Electrostatic Energy            =   +0.00 kcal/mol
DOCKED: USER    (2) Final Total Internal Energy     =   -1.38 kcal/mol
DOCKED: USER    (3) Torsional Free Energy           =   +2.68 kcal/mol
DOCKED: USER    (4) Unbound System's Energy  [=(2)] =   -1.38 kcal/mol
DOCKED: USER    
DOCKED: USER    
DOCKED: USER    NEWDPF move ligand.pdbqt
DOCKED: USER    NEWDPF about 0.359000 0.163000 0.443000
DOCKED: USER    NEWDPF tran0 23.016803 -17.189274 -1.127742
DOCKED: USER    NEWDPF quaternion0 0.428261 -0.531383 -0.378232 -0.625433
DOCKED: USER    NEWDPF axisangle0 0.548856 -0.681017 -0.484740 -102.572096
DOCKED: USER    NEWDPF quat0 0.548856 -0.681017 -0.484740 -102.572096
DOCKED: USER    NEWDPF dihe0 174.06 -31.97 12.86 145.47 -101.63 115.00 -10.97 -179.66 59.36 
DOCKED: USER  keepresnum = 1 
DOCKED: USER  
DOCKED: REMARK  Name = 
DOCKED: REMARK  9 active torsions:
DOCKED: REMARK  status: ('A' for Active; 'I' for Inactive)
DOCKED: REMARK    1  A    between atoms: O_1  and  N_2
DOCKED: REMARK    2  A    between atoms: C_3  and  C_4
DOCKED: REMARK    3  A    between atoms: C_4  and  C_5
DOCKED: REMARK    4  A    between atoms: C_5  and  C_6
DOCKED: REMARK    5  A    between atoms: C_6  and  C_7
DOCKED: REMARK    6  A    between atoms: C_7  and  C_8
DOCKED: REMARK    7  A    between atoms: C_8  and  C_9
DOCKED: REMARK    8  A    between atoms: C_9  and  C_10
DOCKED: REMARK    9  A    between atoms: N_11  and  O_12
DOCKED: REMARK                            x       y       z     vdW  Elec       q    Type
DOCKED: REMARK                         _______ _______ _______ _____ _____    ______ ____
DOCKED: USER                              x       y       z     vdW  Elec       q    Type
DOCKED: USER                           _______ _______ _______ _____ _____    ______ ____
DOCKED: ROOT
DOCKED: ATOM      1  C   UNL     1      23.844 -16.744  -1.278 -0.54 -0.00    +0.000 C 
DOCKED: ENDROOT
DOCKED: BRANCH   1   2
DOCKED: ATOM      2  C   UNL     1      23.802 -18.277  -1.237 -0.79 -0.00    +0.000 C 
DOCKED: BRANCH   2   3
DOCKED: ATOM      3  C   UNL     1      22.784 -18.771  -0.204 -0.75 -0.00    +0.000 C 
DOCKED: BRANCH   3   5
DOCKED: ATOM      4  N   UNL     1      20.771 -19.818  -1.345 -0.74 -0.00    +0.000 N 
DOCKED: ATOM      5  C   UNL     1      21.392 -18.675  -0.752 -0.86 -0.00    +0.000 C 
DOCKED: ATOM      6  O   UNL     1      20.784 -17.571  -0.723 -2.12 -0.00    +0.000 OA
DOCKED: ATOM      7  H   UNL     1      21.263 -20.669  -1.397 -0.14 -0.00    +0.000 HD
DOCKED: BRANCH   4   8
DOCKED: ATOM      8  O   UNL     1      19.511 -19.740  -1.837 -1.67 -0.00    +0.000 OA
DOCKED: ATOM      9  H   UNL     1      19.136 -18.870  -1.626 -0.55 -0.00    +0.000 HD
DOCKED: ENDBRANCH   4   8
DOCKED: ENDBRANCH   3   5
DOCKED: ENDBRANCH   2   3
DOCKED: ENDBRANCH   1   2
DOCKED: BRANCH   1  10
DOCKED: ATOM     10  C   UNL     1      25.024 -16.247  -2.125 -0.56 -0.00    +0.000 C 
DOCKED: BRANCH  10  11
DOCKED: ATOM     11  C   UNL     1      26.113 -15.546  -1.292 -0.44 -0.00    +0.000 C 
DOCKED: BRANCH  11  12
DOCKED: ATOM     12  C   UNL     1      27.374 -16.399  -1.066 -0.41 -0.00    +0.000 C 
DOCKED: BRANCH  12  13
DOCKED: ATOM     13  C   UNL     1      28.235 -15.876   0.048 -0.27 -0.00    +0.000 C 
DOCKED: ATOM     14  N   UNL     1      27.669 -15.065   1.083 -0.28 -0.00    +0.000 N 
DOCKED: ATOM     15  O   UNL     1      29.470 -16.130   0.057 -0.23 -0.00    +0.000 OA
DOCKED: ATOM     16  H   UNL     1      26.709 -14.847   1.062 -0.02 -0.00    +0.000 HD
DOCKED: BRANCH  14  17
DOCKED: ATOM     17  O   UNL     1      28.443 -14.596   2.090 -0.29 -0.00    +0.000 OA
DOCKED: ATOM     18  H   UNL     1      29.150 -15.234   2.278 -1.92 -0.00    +0.000 HD
DOCKED: ENDBRANCH  14  17
DOCKED: ENDBRANCH  12  13
DOCKED: ENDBRANCH  11  12
DOCKED: ENDBRANCH  10  11
DOCKED: ENDBRANCH   1  10
DOCKED: TORSDOF 9
DOCKED: TER
DOCKED: ENDMDL
________________________________________________________________________________


	BEGINNING GENETIC ALGORITHM DOCKING 73 of 100
Run: 73 Seed: 999337563 1581706899 [ Run 73 of 100 GA/GALS ]
Beginning LAMARCKIAN GENETIC ALGORITHM (LGA), with a maximum of 2500000 energy evaluations.

Final-Value: -13.933


	FINAL GENETIC ALGORITHM DOCKED STATE
	_______________________________________________


Detailed state:  trans 23.465 -16.570 -1.419 quatxyzw 0.334822 -0.630462 -0.575274 -0.399339 center 0.359 0.163 0.443 ntor 9 180.0000 12.1305 -19.4605 27.1554 -40.5109 -148.0369 -37.8609 -4.7934 -22.3649
State:	 23.465 -16.570  -1.419   0.365 -0.688 -0.627 -132.926    180.00   12.13  -19.46   27.16  -40.51 -148.04  -37.86   -4.79  -22.36

DOCKED: MODEL       73
DOCKED: USER    Run = 73
DOCKED: USER    DPF = ligand_dock.biased.dpf
DOCKED: USER  
DOCKED: USER    Estimated Free Energy of Binding    =   -9.73 kcal/mol  [=(1)+(2)+(3)-(4)]
DOCKED: USER    Estimated Inhibition Constant, Ki   =   73.83 nM (nanomolar)  [Temperature = 298.15 K]
DOCKED: USER    
DOCKED: USER    (1) Final Intermolecular Energy     =  -12.41 kcal/mol
DOCKED: USER        vdW + Hbond + desolv Energy     =  -12.41 kcal/mol
DOCKED: USER        Electrostatic Energy            =   +0.00 kcal/mol
DOCKED: USER    (2) Final Total Internal Energy     =   -1.52 kcal/mol
DOCKED: USER    (3) Torsional Free Energy           =   +2.68 kcal/mol
DOCKED: USER    (4) Unbound System's Energy  [=(2)] =   -1.52 kcal/mol
DOCKED: USER    
DOCKED: USER    
DOCKED: USER    NEWDPF move ligand.pdbqt
DOCKED: USER    NEWDPF about 0.359000 0.163000 0.443000
DOCKED: USER    NEWDPF tran0 23.464898 -16.569997 -1.419018
DOCKED: USER    NEWDPF quaternion0 0.334822 -0.630462 -0.575274 -0.399339
DOCKED: USER    NEWDPF axisangle0 0.365206 -0.687674 -0.627478 -132.926310
DOCKED: USER    NEWDPF quat0 0.365206 -0.687674 -0.627478 -132.926310
DOCKED: USER    NEWDPF dihe0 180.00 12.13 -19.46 27.16 -40.51 -148.04 -37.86 -4.79 -22.36 
DOCKED: USER  keepresnum = 1 
DOCKED: USER  
DOCKED: REMARK  Name = 
DOCKED: REMARK  9 active torsions:
DOCKED: REMARK  status: ('A' for Active; 'I' for Inactive)
DOCKED: REMARK    1  A    between atoms: O_1  and  N_2
DOCKED: REMARK    2  A    between atoms: C_3  and  C_4
DOCKED: REMARK    3  A    between atoms: C_4  and  C_5
DOCKED: REMARK    4  A    between atoms: C_5  and  C_6
DOCKED: REMARK    5  A    between atoms: C_6  and  C_7
DOCKED: REMARK    6  A    between atoms: C_7  and  C_8
DOCKED: REMARK    7  A    between atoms: C_8  and  C_9
DOCKED: REMARK    8  A    between atoms: C_9  and  C_10
DOCKED: REMARK    9  A    between atoms: N_11  and  O_12
DOCKED: REMARK                            x       y       z     vdW  Elec       q    Type
DOCKED: REMARK                         _______ _______ _______ _____ _____    ______ ____
DOCKED: USER                              x       y       z     vdW  Elec       q    Type
DOCKED: USER                           _______ _______ _______ _____ _____    ______ ____
DOCKED: ROOT
DOCKED: ATOM      1  C   UNL     1      24.411 -16.673  -1.414 -0.62 -0.00    +0.000 C 
DOCKED: ENDROOT
DOCKED: BRANCH   1   2
DOCKED: ATOM      2  C   UNL     1      23.517 -17.875  -1.741 -0.51 -0.00    +0.000 C 
DOCKED: BRANCH   2   3
DOCKED: ATOM      3  C   UNL     1      22.625 -18.237  -0.549 -0.84 -0.00    +0.000 C 
DOCKED: BRANCH   3   5
DOCKED: ATOM      4  N   UNL     1      21.048 -19.752  -1.841 -0.61 -0.00    +0.000 N 
DOCKED: ATOM      5  C   UNL     1      21.248 -18.602  -1.016 -0.80 -0.00    +0.000 C 
DOCKED: ATOM      6  O   UNL     1      20.270 -17.867  -0.712 -2.21 -0.00    +0.000 OA
DOCKED: ATOM      7  H   UNL     1      21.820 -20.303  -2.105 -0.51 -0.00    +0.000 HD
DOCKED: BRANCH   4   8
DOCKED: ATOM      8  O   UNL     1      19.806 -20.090  -2.262 -1.69 -0.00    +0.000 OA
DOCKED: ATOM      9  H   UNL     1      19.163 -19.450  -1.917 -0.49 -0.00    +0.000 HD
DOCKED: ENDBRANCH   4   8
DOCKED: ENDBRANCH   3   5
DOCKED: ENDBRANCH   2   3
DOCKED: ENDBRANCH   1   2
DOCKED: BRANCH   1  10
DOCKED: ATOM     10  C   UNL     1      25.798 -16.826  -2.053 -0.53 -0.00    +0.000 C 
DOCKED: BRANCH  10  11
DOCKED: ATOM     11  C   UNL     1      26.616 -15.522  -2.043 -0.40 -0.00    +0.000 C 
DOCKED: BRANCH  11  12
DOCKED: ATOM     12  C   UNL     1      26.245 -14.542  -3.170 -0.44 -0.00    +0.000 C 
DOCKED: BRANCH  12  13
DOCKED: ATOM     13  C   UNL     1      26.595 -15.067  -4.533 -0.54 -0.00    +0.000 C 
DOCKED: ATOM     14  N   UNL     1      27.842 -14.723  -5.145 -0.37 -0.00    +0.000 N 
DOCKED: ATOM     15  O   UNL     1      25.773 -15.795  -5.153 -1.04 +0.00    +0.000 OA
DOCKED: ATOM     16  H   UNL     1      28.473 -14.135  -4.670 +0.00 -0.00    +0.000 HD
DOCKED: BRANCH  14  17
DOCKED: ATOM     17  O   UNL     1      28.161 -15.199  -6.372 -0.77 +0.00    +0.000 OA
DOCKED: ATOM     18  H   UNL     1      27.374 -15.594  -6.779 -0.06 +0.00    +0.000 HD
DOCKED: ENDBRANCH  14  17
DOCKED: ENDBRANCH  12  13
DOCKED: ENDBRANCH  11  12
DOCKED: ENDBRANCH  10  11
DOCKED: ENDBRANCH   1  10
DOCKED: TORSDOF 9
DOCKED: TER
DOCKED: ENDMDL
________________________________________________________________________________


	BEGINNING GENETIC ALGORITHM DOCKING 74 of 100
Run: 74 Seed: 1904118855 396636534 [ Run 74 of 100 GA/GALS ]
Beginning LAMARCKIAN GENETIC ALGORITHM (LGA), with a maximum of 2500000 energy evaluations.

Final-Value: -13.289


	FINAL GENETIC ALGORITHM DOCKED STATE
	_______________________________________________


Detailed state:  trans 24.421 -19.314 -0.452 quatxyzw -0.206717 -0.614813 0.740181 -0.177216 center 0.359 0.163 0.443 ntor 9 180.0000 -1.6498 -174.1333 -41.1505 -45.4528 164.4784 -61.5608 172.0839 68.9513
State:	 24.421 -19.314  -0.452  -0.210 -0.625  0.752 -159.585    180.00   -1.65 -174.13  -41.15  -45.45  164.48  -61.56  172.08   68.95

DOCKED: MODEL       74
DOCKED: USER    Run = 74
DOCKED: USER    DPF = ligand_dock.biased.dpf
DOCKED: USER  
DOCKED: USER    Estimated Free Energy of Binding    =   -8.82 kcal/mol  [=(1)+(2)+(3)-(4)]
DOCKED: USER    Estimated Inhibition Constant, Ki   =  340.77 nM (nanomolar)  [Temperature = 298.15 K]
DOCKED: USER    
DOCKED: USER    (1) Final Intermolecular Energy     =  -11.51 kcal/mol
DOCKED: USER        vdW + Hbond + desolv Energy     =  -11.51 kcal/mol
DOCKED: USER        Electrostatic Energy            =   +0.00 kcal/mol
DOCKED: USER    (2) Final Total Internal Energy     =   -1.78 kcal/mol
DOCKED: USER    (3) Torsional Free Energy           =   +2.68 kcal/mol
DOCKED: USER    (4) Unbound System's Energy  [=(2)] =   -1.78 kcal/mol
DOCKED: USER    
DOCKED: USER    
DOCKED: USER    NEWDPF move ligand.pdbqt
DOCKED: USER    NEWDPF about 0.359000 0.163000 0.443000
DOCKED: USER    NEWDPF tran0 24.421173 -19.313652 -0.451785
DOCKED: USER    NEWDPF quaternion0 -0.206717 -0.614813 0.740181 -0.177216
DOCKED: USER    NEWDPF axisangle0 -0.210041 -0.624701 0.752085 -159.584702
DOCKED: USER    NEWDPF quat0 -0.210041 -0.624701 0.752085 -159.584702
DOCKED: USER    NEWDPF dihe0 180.00 -1.65 -174.13 -41.15 -45.45 164.48 -61.56 172.08 68.95 
DOCKED: USER  keepresnum = 1 
DOCKED: USER  
DOCKED: REMARK  Name = 
DOCKED: REMARK  9 active torsions:
DOCKED: REMARK  status: ('A' for Active; 'I' for Inactive)
DOCKED: REMARK    1  A    between atoms: O_1  and  N_2
DOCKED: REMARK    2  A    between atoms: C_3  and  C_4
DOCKED: REMARK    3  A    between atoms: C_4  and  C_5
DOCKED: REMARK    4  A    between atoms: C_5  and  C_6
DOCKED: REMARK    5  A    between atoms: C_6  and  C_7
DOCKED: REMARK    6  A    between atoms: C_7  and  C_8
DOCKED: REMARK    7  A    between atoms: C_8  and  C_9
DOCKED: REMARK    8  A    between atoms: C_9  and  C_10
DOCKED: REMARK    9  A    between atoms: N_11  and  O_12
DOCKED: REMARK                            x       y       z     vdW  Elec       q    Type
DOCKED: REMARK                         _______ _______ _______ _____ _____    ______ ____
DOCKED: USER                              x       y       z     vdW  Elec       q    Type
DOCKED: USER                           _______ _______ _______ _____ _____    ______ ____
DOCKED: ROOT
DOCKED: ATOM      1  C   UNL     1      25.177 -18.752  -0.591 -0.46 -0.00    +0.000 C 
DOCKED: ENDROOT
DOCKED: BRANCH   1   2
DOCKED: ATOM      2  C   UNL     1      23.832 -18.133  -0.191 -0.75 -0.00    +0.000 C 
DOCKED: BRANCH   2   3
DOCKED: ATOM      3  C   UNL     1      22.963 -17.862  -1.423 -0.59 -0.00    +0.000 C 
DOCKED: BRANCH   3   5
DOCKED: ATOM      4  N   UNL     1      21.164 -19.651  -1.529 -0.69 -0.00    +0.000 N 
DOCKED: ATOM      5  C   UNL     1      21.556 -18.320  -1.184 -0.50 -0.00    +0.000 C 
DOCKED: ATOM      6  O   UNL     1      20.707 -17.515  -0.715 -2.10 +0.00    +0.000 OA
DOCKED: ATOM      7  H   UNL     1      21.821 -20.266  -1.928 -0.47 -0.00    +0.000 HD
DOCKED: BRANCH   4   8
DOCKED: ATOM      8  O   UNL     1      19.895 -20.074  -1.312 -1.50 -0.00    +0.000 OA
DOCKED: ATOM      9  H   UNL     1      19.379 -19.353  -0.917 -0.15 -0.00    +0.000 HD
DOCKED: ENDBRANCH   4   8
DOCKED: ENDBRANCH   3   5
DOCKED: ENDBRANCH   2   3
DOCKED: ENDBRANCH   1   2
DOCKED: BRANCH   1  10
DOCKED: ATOM     10  C   UNL     1      26.347 -17.859  -0.154 -0.62 -0.00    +0.000 C 
DOCKED: BRANCH  10  11
DOCKED: ATOM     11  C   UNL     1      26.947 -17.040  -1.312 -0.48 -0.00    +0.000 C 
DOCKED: BRANCH  11  12
DOCKED: ATOM     12  C   UNL     1      26.397 -15.607  -1.415 -0.42 -0.00    +0.000 C 
DOCKED: BRANCH  12  13
DOCKED: ATOM     13  C   UNL     1      25.600 -15.381  -2.668 -0.52 -0.00    +0.000 C 
DOCKED: ATOM     14  N   UNL     1      25.324 -14.053  -3.124 -0.35 -0.00    +0.000 N 
DOCKED: ATOM     15  O   UNL     1      25.147 -16.368  -3.308 -0.56 -0.00    +0.000 OA
DOCKED: ATOM     16  H   UNL     1      25.658 -13.282  -2.610 +0.00 -0.00    +0.000 HD
DOCKED: BRANCH  14  17
DOCKED: ATOM     17  O   UNL     1      24.610 -13.847  -4.255 -1.07 -0.00    +0.000 OA
DOCKED: ATOM     18  H   UNL     1      24.381 -14.703  -4.652 -0.29 +0.00    +0.000 HD
DOCKED: ENDBRANCH  14  17
DOCKED: ENDBRANCH  12  13
DOCKED: ENDBRANCH  11  12
DOCKED: ENDBRANCH  10  11
DOCKED: ENDBRANCH   1  10
DOCKED: TORSDOF 9
DOCKED: TER
DOCKED: ENDMDL
________________________________________________________________________________


	BEGINNING GENETIC ALGORITHM DOCKING 75 of 100
Run: 75 Seed: 888539852 2113260449 [ Run 75 of 100 GA/GALS ]
Beginning LAMARCKIAN GENETIC ALGORITHM (LGA), with a maximum of 2500000 energy evaluations.

Final-Value: -13.372


	FINAL GENETIC ALGORITHM DOCKED STATE
	_______________________________________________


Detailed state:  trans 25.973 -17.129 -2.661 quatxyzw -0.770877 -0.619761 -0.120306 0.084685 center 0.359 0.163 0.443 ntor 9 -180.0000 22.4141 -180.0000 -178.2530 2.0232 162.6618 37.4102 -109.7689 -150.0848
State:	 25.973 -17.129  -2.661  -0.774 -0.622 -0.121 170.284   -180.00   22.41 -180.00 -178.25    2.02  162.66   37.41 -109.77 -150.08

DOCKED: MODEL       75
DOCKED: USER    Run = 75
DOCKED: USER    DPF = ligand_dock.biased.dpf
DOCKED: USER  
DOCKED: USER    Estimated Free Energy of Binding    =   -9.20 kcal/mol  [=(1)+(2)+(3)-(4)]
DOCKED: USER    Estimated Inhibition Constant, Ki   =  179.01 nM (nanomolar)  [Temperature = 298.15 K]
DOCKED: USER    
DOCKED: USER    (1) Final Intermolecular Energy     =  -11.89 kcal/mol
DOCKED: USER        vdW + Hbond + desolv Energy     =  -11.89 kcal/mol
DOCKED: USER        Electrostatic Energy            =   +0.00 kcal/mol
DOCKED: USER    (2) Final Total Internal Energy     =   -1.48 kcal/mol
DOCKED: USER    (3) Torsional Free Energy           =   +2.68 kcal/mol
DOCKED: USER    (4) Unbound System's Energy  [=(2)] =   -1.48 kcal/mol
DOCKED: USER    
DOCKED: USER    
DOCKED: USER    NEWDPF move ligand.pdbqt
DOCKED: USER    NEWDPF about 0.359000 0.163000 0.443000
DOCKED: USER    NEWDPF tran0 25.972701 -17.129097 -2.661074
DOCKED: USER    NEWDPF quaternion0 -0.770877 -0.619761 -0.120306 0.084685
DOCKED: USER    NEWDPF axisangle0 -0.773656 -0.621995 -0.120740 170.284166
DOCKED: USER    NEWDPF quat0 -0.773656 -0.621995 -0.120740 170.284166
DOCKED: USER    NEWDPF dihe0 -180.00 22.41 -180.00 -178.25 2.02 162.66 37.41 -109.77 -150.08 
DOCKED: USER  keepresnum = 1 
DOCKED: USER  
DOCKED: REMARK  Name = 
DOCKED: REMARK  9 active torsions:
DOCKED: REMARK  status: ('A' for Active; 'I' for Inactive)
DOCKED: REMARK    1  A    between atoms: O_1  and  N_2
DOCKED: REMARK    2  A    between atoms: C_3  and  C_4
DOCKED: REMARK    3  A    between atoms: C_4  and  C_5
DOCKED: REMARK    4  A    between atoms: C_5  and  C_6
DOCKED: REMARK    5  A    between atoms: C_6  and  C_7
DOCKED: REMARK    6  A    between atoms: C_7  and  C_8
DOCKED: REMARK    7  A    between atoms: C_8  and  C_9
DOCKED: REMARK    8  A    between atoms: C_9  and  C_10
DOCKED: REMARK    9  A    between atoms: N_11  and  O_12
DOCKED: REMARK                            x       y       z     vdW  Elec       q    Type
DOCKED: REMARK                         _______ _______ _______ _____ _____    ______ ____
DOCKED: USER                              x       y       z     vdW  Elec       q    Type
DOCKED: USER                           _______ _______ _______ _____ _____    ______ ____
DOCKED: ROOT
DOCKED: ATOM      1  C   UNL     1      25.673 -17.485  -1.831 -0.48 -0.00    +0.000 C 
DOCKED: ENDROOT
DOCKED: BRANCH   1   2
DOCKED: ATOM      2  C   UNL     1      25.573 -15.977  -2.093 -0.55 -0.00    +0.000 C 
DOCKED: BRANCH   2   3
DOCKED: ATOM      3  C   UNL     1      25.812 -15.660  -3.573 -0.56 -0.00    +0.000 C 
DOCKED: BRANCH   3   5
DOCKED: ATOM      4  N   UNL     1      24.561 -13.561  -4.264 -0.40 -0.00    +0.000 N 
DOCKED: ATOM      5  C   UNL     1      25.766 -14.180  -3.806 -0.51 -0.00    +0.000 C 
DOCKED: ATOM      6  O   UNL     1      26.804 -13.486  -3.635 -0.28 -0.00    +0.000 OA
DOCKED: ATOM      7  H   UNL     1      23.762 -14.111  -4.431 -0.60 -0.00    +0.000 HD
DOCKED: BRANCH   4   8
DOCKED: ATOM      8  O   UNL     1      24.510 -12.223  -4.473 -0.50 -0.00    +0.000 OA
DOCKED: ATOM      9  H   UNL     1      25.373 -11.831  -4.265 -0.02 -0.00    +0.000 HD
DOCKED: ENDBRANCH   4   8
DOCKED: ENDBRANCH   3   5
DOCKED: ENDBRANCH   2   3
DOCKED: ENDBRANCH   1   2
DOCKED: BRANCH   1  10
DOCKED: ATOM     10  C   UNL     1      24.619 -17.938  -0.810 -0.74 -0.00    +0.000 C 
DOCKED: BRANCH  10  11
DOCKED: ATOM     11  C   UNL     1      23.263 -17.231  -0.986 -0.70 -0.00    +0.000 C 
DOCKED: BRANCH  11  12
DOCKED: ATOM     12  C   UNL     1      22.153 -17.767  -0.065 -0.72 -0.00    +0.000 C 
DOCKED: BRANCH  12  13
DOCKED: ATOM     13  C   UNL     1      21.026 -18.403  -0.827 -0.75 -0.00    +0.000 C 
DOCKED: ATOM     14  N   UNL     1      21.267 -19.533  -1.671 -0.64 -0.00    +0.000 N 
DOCKED: ATOM     15  O   UNL     1      19.864 -17.922  -0.742 -1.84 -0.00    +0.000 OA
DOCKED: ATOM     16  H   UNL     1      22.180 -19.893  -1.755 -0.39 -0.00    +0.000 HD
DOCKED: BRANCH  14  17
DOCKED: ATOM     17  O   UNL     1      20.251 -20.111  -2.355 -1.77 -0.00    +0.000 OA
DOCKED: ATOM     18  H   UNL     1      19.529 -19.473  -2.460 -0.43 -0.00    +0.000 HD
DOCKED: ENDBRANCH  14  17
DOCKED: ENDBRANCH  12  13
DOCKED: ENDBRANCH  11  12
DOCKED: ENDBRANCH  10  11
DOCKED: ENDBRANCH   1  10
DOCKED: TORSDOF 9
DOCKED: TER
DOCKED: ENDMDL
________________________________________________________________________________


	BEGINNING GENETIC ALGORITHM DOCKING 76 of 100
Run: 76 Seed: 1774894197 635671836 [ Run 76 of 100 GA/GALS ]
Beginning LAMARCKIAN GENETIC ALGORITHM (LGA), with a maximum of 2500000 energy evaluations.

Final-Value: -13.967


	FINAL GENETIC ALGORITHM DOCKED STATE
	_______________________________________________


Detailed state:  trans 26.340 -16.240 -1.658 quatxyzw -0.740589 -0.123311 -0.428052 -0.503083 center 0.359 0.163 0.443 ntor 9 -176.3427 -19.5141 19.8617 -113.2067 -53.9269 -153.0059 21.3958 -75.5779 -160.3742
State:	 26.340 -16.240  -1.658  -0.857 -0.143 -0.495 -119.592   -176.34  -19.51   19.86 -113.21  -53.93 -153.01   21.40  -75.58 -160.37

DOCKED: MODEL       76
DOCKED: USER    Run = 76
DOCKED: USER    DPF = ligand_dock.biased.dpf
DOCKED: USER  
DOCKED: USER    Estimated Free Energy of Binding    =   -9.75 kcal/mol  [=(1)+(2)+(3)-(4)]
DOCKED: USER    Estimated Inhibition Constant, Ki   =   71.21 nM (nanomolar)  [Temperature = 298.15 K]
DOCKED: USER    
DOCKED: USER    (1) Final Intermolecular Energy     =  -12.44 kcal/mol
DOCKED: USER        vdW + Hbond + desolv Energy     =  -12.44 kcal/mol
DOCKED: USER        Electrostatic Energy            =   +0.00 kcal/mol
DOCKED: USER    (2) Final Total Internal Energy     =   -1.53 kcal/mol
DOCKED: USER    (3) Torsional Free Energy           =   +2.68 kcal/mol
DOCKED: USER    (4) Unbound System's Energy  [=(2)] =   -1.53 kcal/mol
DOCKED: USER    
DOCKED: USER    
DOCKED: USER    NEWDPF move ligand.pdbqt
DOCKED: USER    NEWDPF about 0.359000 0.163000 0.443000
DOCKED: USER    NEWDPF tran0 26.339514 -16.240234 -1.658333
DOCKED: USER    NEWDPF quaternion0 -0.740589 -0.123311 -0.428052 -0.503083
DOCKED: USER    NEWDPF axisangle0 -0.856928 -0.142682 -0.495295 -119.591577
DOCKED: USER    NEWDPF quat0 -0.856928 -0.142682 -0.495295 -119.591577
DOCKED: USER    NEWDPF dihe0 -176.34 -19.51 19.86 -113.21 -53.93 -153.01 21.40 -75.58 -160.37 
DOCKED: USER  keepresnum = 1 
DOCKED: USER  
DOCKED: REMARK  Name = 
DOCKED: REMARK  9 active torsions:
DOCKED: REMARK  status: ('A' for Active; 'I' for Inactive)
DOCKED: REMARK    1  A    between atoms: O_1  and  N_2
DOCKED: REMARK    2  A    between atoms: C_3  and  C_4
DOCKED: REMARK    3  A    between atoms: C_4  and  C_5
DOCKED: REMARK    4  A    between atoms: C_5  and  C_6
DOCKED: REMARK    5  A    between atoms: C_6  and  C_7
DOCKED: REMARK    6  A    between atoms: C_7  and  C_8
DOCKED: REMARK    7  A    between atoms: C_8  and  C_9
DOCKED: REMARK    8  A    between atoms: C_9  and  C_10
DOCKED: REMARK    9  A    between atoms: N_11  and  O_12
DOCKED: REMARK                            x       y       z     vdW  Elec       q    Type
DOCKED: REMARK                         _______ _______ _______ _____ _____    ______ ____
DOCKED: USER                              x       y       z     vdW  Elec       q    Type
DOCKED: USER                           _______ _______ _______ _____ _____    ______ ____
DOCKED: ROOT
DOCKED: ATOM      1  C   UNL     1      25.699 -16.925  -1.822 -0.58 -0.00    +0.000 C 
DOCKED: ENDROOT
DOCKED: BRANCH   1   2
DOCKED: ATOM      2  C   UNL     1      26.385 -16.837  -0.453 -0.52 -0.00    +0.000 C 
DOCKED: BRANCH   2   3
DOCKED: ATOM      3  C   UNL     1      27.436 -15.723  -0.436 -0.35 -0.00    +0.000 C 
DOCKED: BRANCH   3   5
DOCKED: ATOM      4  N   UNL     1      28.001 -14.855   1.883 -0.23 -0.00    +0.000 N 
DOCKED: ATOM      5  C   UNL     1      27.190 -14.787   0.708 -0.23 -0.00    +0.000 C 
DOCKED: ATOM      6  O   UNL     1      26.237 -13.963   0.648 -0.34 -0.00    +0.000 OA
DOCKED: ATOM      7  H   UNL     1      28.721 -15.524   1.941 -1.47 -0.00    +0.000 HD
DOCKED: BRANCH   4   8
DOCKED: ATOM      8  O   UNL     1      27.787 -14.009   2.919 -0.41 -0.00    +0.000 OA
DOCKED: ATOM      9  H   UNL     1      27.011 -13.458   2.729 -0.03 -0.00    +0.000 HD
DOCKED: ENDBRANCH   4   8
DOCKED: ENDBRANCH   3   5
DOCKED: ENDBRANCH   2   3
DOCKED: ENDBRANCH   1   2
DOCKED: BRANCH   1  10
DOCKED: ATOM     10  C   UNL     1      24.326 -17.602  -1.709 -0.68 -0.00    +0.000 C 
DOCKED: BRANCH  10  11
DOCKED: ATOM     11  C   UNL     1      23.666 -17.404  -0.331 -0.65 -0.00    +0.000 C 
DOCKED: BRANCH  11  12
DOCKED: ATOM     12  C   UNL     1      22.718 -18.545   0.078 -0.74 -0.00    +0.000 C 
DOCKED: BRANCH  12  13
DOCKED: ATOM     13  C   UNL     1      21.443 -18.551  -0.717 -0.86 -0.00    +0.000 C 
DOCKED: ATOM     14  N   UNL     1      21.034 -19.727  -1.421 -0.74 -0.00    +0.000 N 
DOCKED: ATOM     15  O   UNL     1      20.743 -17.505  -0.785 -2.09 -0.00    +0.000 OA
DOCKED: ATOM     16  H   UNL     1      21.594 -20.537  -1.387 -0.19 -0.00    +0.000 HD
DOCKED: BRANCH  14  17
DOCKED: ATOM     17  O   UNL     1      19.883 -19.737  -2.135 -1.89 -0.00    +0.000 OA
DOCKED: ATOM     18  H   UNL     1      19.310 -19.015  -1.833 -0.45 -0.00    +0.000 HD
DOCKED: ENDBRANCH  14  17
DOCKED: ENDBRANCH  12  13
DOCKED: ENDBRANCH  11  12
DOCKED: ENDBRANCH  10  11
DOCKED: ENDBRANCH   1  10
DOCKED: TORSDOF 9
DOCKED: TER
DOCKED: ENDMDL
________________________________________________________________________________


	BEGINNING GENETIC ALGORITHM DOCKING 77 of 100
Run: 77 Seed: 352355729 591948979 [ Run 77 of 100 GA/GALS ]
Beginning LAMARCKIAN GENETIC ALGORITHM (LGA), with a maximum of 2500000 energy evaluations.

Final-Value: -13.253


	FINAL GENETIC ALGORITHM DOCKED STATE
	_______________________________________________


Detailed state:  trans 22.884 -17.059 -0.597 quatxyzw 0.491301 -0.590925 -0.636269 -0.067767 center 0.359 0.163 0.443 ntor 9 -164.9917 -176.6024 80.3523 44.6542 -84.9719 -157.5147 -79.8222 178.8908 -150.4981
State:	 22.884 -17.059  -0.597   0.492 -0.592 -0.638 -172.229   -164.99 -176.60   80.35   44.65  -84.97 -157.51  -79.82  178.89 -150.50

DOCKED: MODEL       77
DOCKED: USER    Run = 77
DOCKED: USER    DPF = ligand_dock.biased.dpf
DOCKED: USER  
DOCKED: USER    Estimated Free Energy of Binding    =   -9.38 kcal/mol  [=(1)+(2)+(3)-(4)]
DOCKED: USER    Estimated Inhibition Constant, Ki   =  132.31 nM (nanomolar)  [Temperature = 298.15 K]
DOCKED: USER    
DOCKED: USER    (1) Final Intermolecular Energy     =  -12.07 kcal/mol
DOCKED: USER        vdW + Hbond + desolv Energy     =  -12.07 kcal/mol
DOCKED: USER        Electrostatic Energy            =   +0.00 kcal/mol
DOCKED: USER    (2) Final Total Internal Energy     =   -1.18 kcal/mol
DOCKED: USER    (3) Torsional Free Energy           =   +2.68 kcal/mol
DOCKED: USER    (4) Unbound System's Energy  [=(2)] =   -1.18 kcal/mol
DOCKED: USER    
DOCKED: USER    
DOCKED: USER    NEWDPF move ligand.pdbqt
DOCKED: USER    NEWDPF about 0.359000 0.163000 0.443000
DOCKED: USER    NEWDPF tran0 22.883745 -17.059146 -0.596607
DOCKED: USER    NEWDPF quaternion0 0.491301 -0.590925 -0.636269 -0.067767
DOCKED: USER    NEWDPF axisangle0 0.492433 -0.592287 -0.637735 -172.228533
DOCKED: USER    NEWDPF quat0 0.492433 -0.592287 -0.637735 -172.228533
DOCKED: USER    NEWDPF dihe0 -164.99 -176.60 80.35 44.65 -84.97 -157.51 -79.82 178.89 -150.50 
DOCKED: USER  keepresnum = 1 
DOCKED: USER  
DOCKED: REMARK  Name = 
DOCKED: REMARK  9 active torsions:
DOCKED: REMARK  status: ('A' for Active; 'I' for Inactive)
DOCKED: REMARK    1  A    between atoms: O_1  and  N_2
DOCKED: REMARK    2  A    between atoms: C_3  and  C_4
DOCKED: REMARK    3  A    between atoms: C_4  and  C_5
DOCKED: REMARK    4  A    between atoms: C_5  and  C_6
DOCKED: REMARK    5  A    between atoms: C_6  and  C_7
DOCKED: REMARK    6  A    between atoms: C_7  and  C_8
DOCKED: REMARK    7  A    between atoms: C_8  and  C_9
DOCKED: REMARK    8  A    between atoms: C_9  and  C_10
DOCKED: REMARK    9  A    between atoms: N_11  and  O_12
DOCKED: REMARK                            x       y       z     vdW  Elec       q    Type
DOCKED: REMARK                         _______ _______ _______ _____ _____    ______ ____
DOCKED: USER                              x       y       z     vdW  Elec       q    Type
DOCKED: USER                           _______ _______ _______ _____ _____    ______ ____
DOCKED: ROOT
DOCKED: ATOM      1  C   UNL     1      23.669 -17.449  -0.226 -0.57 -0.00    +0.000 C 
DOCKED: ENDROOT
DOCKED: BRANCH   1   2
DOCKED: ATOM      2  C   UNL     1      23.011 -18.086  -1.456 -0.66 -0.00    +0.000 C 
DOCKED: BRANCH   2   3
DOCKED: ATOM      3  C   UNL     1      22.251 -19.360  -1.074 -0.72 -0.00    +0.000 C 
DOCKED: BRANCH   3   5
DOCKED: ATOM      4  N   UNL     1      19.839 -20.114  -0.812 -0.74 -0.00    +0.000 N 
DOCKED: ATOM      5  C   UNL     1      20.801 -19.056  -0.840 -0.89 -0.00    +0.000 C 
DOCKED: ATOM      6  O   UNL     1      20.427 -17.860  -0.708 -2.27 -0.00    +0.000 OA
DOCKED: ATOM      7  H   UNL     1      20.131 -21.043  -0.951 -0.47 -0.00    +0.000 HD
DOCKED: BRANCH   4   8
DOCKED: ATOM      8  O   UNL     1      18.529 -19.847  -0.597 -0.79 -0.00    +0.000 OA
DOCKED: ATOM      9  H   UNL     1      18.370 -18.896  -0.716 -0.60 -0.00    +0.000 HD
DOCKED: ENDBRANCH   4   8
DOCKED: ENDBRANCH   3   5
DOCKED: ENDBRANCH   2   3
DOCKED: ENDBRANCH   1   2
DOCKED: BRANCH   1  10
DOCKED: ATOM     10  C   UNL     1      25.168 -17.775  -0.171 -0.63 -0.00    +0.000 C 
DOCKED: BRANCH  10  11
DOCKED: ATOM     11  C   UNL     1      25.839 -17.768  -1.557 -0.35 -0.00    +0.000 C 
DOCKED: BRANCH  11  12
DOCKED: ATOM     12  C   UNL     1      26.673 -16.506  -1.841 -0.45 -0.00    +0.000 C 
DOCKED: BRANCH  12  13
DOCKED: ATOM     13  C   UNL     1      25.823 -15.311  -2.169 -0.47 -0.00    +0.000 C 
DOCKED: ATOM     14  N   UNL     1      25.223 -15.180  -3.461 -0.52 -0.00    +0.000 N 
DOCKED: ATOM     15  O   UNL     1      25.659 -14.406  -1.307 -0.34 -0.00    +0.000 OA
DOCKED: ATOM     16  H   UNL     1      25.372 -15.876  -4.141 -0.05 -0.00    +0.000 HD
DOCKED: BRANCH  14  17
DOCKED: ATOM     17  O   UNL     1      24.453 -14.106  -3.756 -1.03 -0.00    +0.000 OA
DOCKED: ATOM     18  H   UNL     1      24.088 -14.207  -4.649 -0.51 -0.00    +0.000 HD
DOCKED: ENDBRANCH  14  17
DOCKED: ENDBRANCH  12  13
DOCKED: ENDBRANCH  11  12
DOCKED: ENDBRANCH  10  11
DOCKED: ENDBRANCH   1  10
DOCKED: TORSDOF 9
DOCKED: TER
DOCKED: ENDMDL
________________________________________________________________________________


	BEGINNING GENETIC ALGORITHM DOCKING 78 of 100
Run: 78 Seed: 809352226 12514342 [ Run 78 of 100 GA/GALS ]
Beginning LAMARCKIAN GENETIC ALGORITHM (LGA), with a maximum of 2500000 energy evaluations.

Final-Value: -13.484


	FINAL GENETIC ALGORITHM DOCKED STATE
	_______________________________________________


Detailed state:  trans 24.662 -18.150 -0.513 quatxyzw -0.296443 -0.387344 0.833655 0.259049 center 0.359 0.163 0.443 ntor 9 175.8874 1.8776 25.4146 165.3452 -12.4445 147.8928 38.0876 47.2917 121.6295
State:	 24.662 -18.150  -0.513  -0.307 -0.401  0.863 149.973    175.89    1.88   25.41  165.35  -12.44  147.89   38.09   47.29  121.63

DOCKED: MODEL       78
DOCKED: USER    Run = 78
DOCKED: USER    DPF = ligand_dock.biased.dpf
DOCKED: USER  
DOCKED: USER    Estimated Free Energy of Binding    =   -9.39 kcal/mol  [=(1)+(2)+(3)-(4)]
DOCKED: USER    Estimated Inhibition Constant, Ki   =  130.48 nM (nanomolar)  [Temperature = 298.15 K]
DOCKED: USER    
DOCKED: USER    (1) Final Intermolecular Energy     =  -12.08 kcal/mol
DOCKED: USER        vdW + Hbond + desolv Energy     =  -12.08 kcal/mol
DOCKED: USER        Electrostatic Energy            =   +0.00 kcal/mol
DOCKED: USER    (2) Final Total Internal Energy     =   -1.41 kcal/mol
DOCKED: USER    (3) Torsional Free Energy           =   +2.68 kcal/mol
DOCKED: USER    (4) Unbound System's Energy  [=(2)] =   -1.41 kcal/mol
DOCKED: USER    
DOCKED: USER    
DOCKED: USER    NEWDPF move ligand.pdbqt
DOCKED: USER    NEWDPF about 0.359000 0.163000 0.443000
DOCKED: USER    NEWDPF tran0 24.662081 -18.149644 -0.512982
DOCKED: USER    NEWDPF quaternion0 -0.296443 -0.387344 0.833655 0.259049
DOCKED: USER    NEWDPF axisangle0 -0.306919 -0.401033 0.863118 149.972728
DOCKED: USER    NEWDPF quat0 -0.306919 -0.401033 0.863118 149.972728
DOCKED: USER    NEWDPF dihe0 175.89 1.88 25.41 165.35 -12.44 147.89 38.09 47.29 121.63 
DOCKED: USER  keepresnum = 1 
DOCKED: USER  
DOCKED: REMARK  Name = 
DOCKED: REMARK  9 active torsions:
DOCKED: REMARK  status: ('A' for Active; 'I' for Inactive)
DOCKED: REMARK    1  A    between atoms: O_1  and  N_2
DOCKED: REMARK    2  A    between atoms: C_3  and  C_4
DOCKED: REMARK    3  A    between atoms: C_4  and  C_5
DOCKED: REMARK    4  A    between atoms: C_5  and  C_6
DOCKED: REMARK    5  A    between atoms: C_6  and  C_7
DOCKED: REMARK    6  A    between atoms: C_7  and  C_8
DOCKED: REMARK    7  A    between atoms: C_8  and  C_9
DOCKED: REMARK    8  A    between atoms: C_9  and  C_10
DOCKED: REMARK    9  A    between atoms: N_11  and  O_12
DOCKED: REMARK                            x       y       z     vdW  Elec       q    Type
DOCKED: REMARK                         _______ _______ _______ _____ _____    ______ ____
DOCKED: USER                              x       y       z     vdW  Elec       q    Type
DOCKED: USER                           _______ _______ _______ _____ _____    ______ ____
DOCKED: ROOT
DOCKED: ATOM      1  C   UNL     1      25.177 -17.387  -0.756 -0.67 -0.00    +0.000 C 
DOCKED: ENDROOT
DOCKED: BRANCH   1   2
DOCKED: ATOM      2  C   UNL     1      23.790 -17.596  -1.375 -0.72 -0.00    +0.000 C 
DOCKED: BRANCH   2   3
DOCKED: ATOM      3  C   UNL     1      23.010 -18.678  -0.622 -0.83 -0.00    +0.000 C 
DOCKED: BRANCH   3   5
DOCKED: ATOM      4  N   UNL     1      21.042 -19.734  -1.832 -0.65 -0.00    +0.000 N 
DOCKED: ATOM      5  C   UNL     1      21.569 -18.670  -1.035 -0.82 -0.00    +0.000 C 
DOCKED: ATOM      6  O   UNL     1      20.831 -17.701  -0.711 -2.18 -0.00    +0.000 OA
DOCKED: ATOM      7  H   UNL     1      21.630 -20.471  -2.113 -0.49 -0.00    +0.000 HD
DOCKED: BRANCH   4   8
DOCKED: ATOM      8  O   UNL     1      19.739 -19.734  -2.205 -1.75 -0.00    +0.000 OA
DOCKED: ATOM      9  H   UNL     1      19.286 -18.980  -1.797 -0.47 -0.00    +0.000 HD
DOCKED: ENDBRANCH   4   8
DOCKED: ENDBRANCH   3   5
DOCKED: ENDBRANCH   2   3
DOCKED: ENDBRANCH   1   2
DOCKED: BRANCH   1  10
DOCKED: ATOM     10  C   UNL     1      25.555 -15.899  -0.738 -0.44 -0.00    +0.000 C 
DOCKED: BRANCH  10  11
DOCKED: ATOM     11  C   UNL     1      25.350 -15.207  -2.098 -0.37 -0.00    +0.000 C 
DOCKED: BRANCH  11  12
DOCKED: ATOM     12  C   UNL     1      25.498 -16.148  -3.307 -0.45 -0.00    +0.000 C 
DOCKED: BRANCH  12  13
DOCKED: ATOM     13  C   UNL     1      26.412 -15.595  -4.363 -0.50 -0.00    +0.000 C 
DOCKED: ATOM     14  N   UNL     1      27.652 -14.981  -4.000 -0.30 -0.00    +0.000 N 
DOCKED: ATOM     15  O   UNL     1      26.071 -15.649  -5.575 -1.15 +0.00    +0.000 OA
DOCKED: ATOM     16  H   UNL     1      27.906 -14.919  -3.050 +0.00 -0.00    +0.000 HD
DOCKED: BRANCH  14  17
DOCKED: ATOM     17  O   UNL     1      28.480 -14.486  -4.951 -0.27 -0.00    +0.000 OA
DOCKED: ATOM     18  H   UNL     1      28.072 -14.600  -5.824 -0.02 -0.00    +0.000 HD
DOCKED: ENDBRANCH  14  17
DOCKED: ENDBRANCH  12  13
DOCKED: ENDBRANCH  11  12
DOCKED: ENDBRANCH  10  11
DOCKED: ENDBRANCH   1  10
DOCKED: TORSDOF 9
DOCKED: TER
DOCKED: ENDMDL
________________________________________________________________________________


	BEGINNING GENETIC ALGORITHM DOCKING 79 of 100
Run: 79 Seed: 612819997 450381868 [ Run 79 of 100 GA/GALS ]
Beginning LAMARCKIAN GENETIC ALGORITHM (LGA), with a maximum of 2500000 energy evaluations.

Final-Value: -13.881


	FINAL GENETIC ALGORITHM DOCKED STATE
	_______________________________________________


Detailed state:  trans 26.813 -17.364 -1.210 quatxyzw -0.623469 -0.455186 -0.433444 0.464993 center 0.359 0.163 0.443 ntor 9 -180.0000 13.4196 -80.1882 27.5982 70.8166 165.9082 178.3541 -86.6016 19.2940
State:	 26.813 -17.364  -1.210  -0.704 -0.514 -0.490 124.580   -180.00   13.42  -80.19   27.60   70.82  165.91  178.35  -86.60   19.29

DOCKED: MODEL       79
DOCKED: USER    Run = 79
DOCKED: USER    DPF = ligand_dock.biased.dpf
DOCKED: USER  
DOCKED: USER    Estimated Free Energy of Binding    =   -9.63 kcal/mol  [=(1)+(2)+(3)-(4)]
DOCKED: USER    Estimated Inhibition Constant, Ki   =   87.96 nM (nanomolar)  [Temperature = 298.15 K]
DOCKED: USER    
DOCKED: USER    (1) Final Intermolecular Energy     =  -12.31 kcal/mol
DOCKED: USER        vdW + Hbond + desolv Energy     =  -12.31 kcal/mol
DOCKED: USER        Electrostatic Energy            =   +0.00 kcal/mol
DOCKED: USER    (2) Final Total Internal Energy     =   -1.57 kcal/mol
DOCKED: USER    (3) Torsional Free Energy           =   +2.68 kcal/mol
DOCKED: USER    (4) Unbound System's Energy  [=(2)] =   -1.57 kcal/mol
DOCKED: USER    
DOCKED: USER    
DOCKED: USER    NEWDPF move ligand.pdbqt
DOCKED: USER    NEWDPF about 0.359000 0.163000 0.443000
DOCKED: USER    NEWDPF tran0 26.812975 -17.363607 -1.210108
DOCKED: USER    NEWDPF quaternion0 -0.623469 -0.455186 -0.433444 0.464993
DOCKED: USER    NEWDPF axisangle0 -0.704234 -0.514152 -0.489593 124.580478
DOCKED: USER    NEWDPF quat0 -0.704234 -0.514152 -0.489593 124.580478
DOCKED: USER    NEWDPF dihe0 -180.00 13.42 -80.19 27.60 70.82 165.91 178.35 -86.60 19.29 
DOCKED: USER  keepresnum = 1 
DOCKED: USER  
DOCKED: REMARK  Name = 
DOCKED: REMARK  9 active torsions:
DOCKED: REMARK  status: ('A' for Active; 'I' for Inactive)
DOCKED: REMARK    1  A    between atoms: O_1  and  N_2
DOCKED: REMARK    2  A    between atoms: C_3  and  C_4
DOCKED: REMARK    3  A    between atoms: C_4  and  C_5
DOCKED: REMARK    4  A    between atoms: C_5  and  C_6
DOCKED: REMARK    5  A    between atoms: C_6  and  C_7
DOCKED: REMARK    6  A    between atoms: C_7  and  C_8
DOCKED: REMARK    7  A    between atoms: C_8  and  C_9
DOCKED: REMARK    8  A    between atoms: C_9  and  C_10
DOCKED: REMARK    9  A    between atoms: N_11  and  O_12
DOCKED: REMARK                            x       y       z     vdW  Elec       q    Type
DOCKED: REMARK                         _______ _______ _______ _____ _____    ______ ____
DOCKED: USER                              x       y       z     vdW  Elec       q    Type
DOCKED: USER                           _______ _______ _______ _____ _____    ______ ____
DOCKED: ROOT
DOCKED: ATOM      1  C   UNL     1      25.890 -17.535  -1.051 -0.61 -0.00    +0.000 C 
DOCKED: ENDROOT
DOCKED: BRANCH   1   2
DOCKED: ATOM      2  C   UNL     1      26.350 -16.117  -1.414 -0.47 -0.00    +0.000 C 
DOCKED: BRANCH   2   3
DOCKED: ATOM      3  C   UNL     1      25.223 -15.331  -2.091 -0.36 -0.00    +0.000 C 
DOCKED: BRANCH   3   5
DOCKED: ATOM      4  N   UNL     1      26.690 -15.719  -4.128 -0.41 -0.00    +0.000 N 
DOCKED: ATOM      5  C   UNL     1      25.521 -15.135  -3.547 -0.57 -0.00    +0.000 C 
DOCKED: ATOM      6  O   UNL     1      24.759 -14.420  -4.251 -1.05 -0.00    +0.000 OA
DOCKED: ATOM      7  H   UNL     1      27.302 -16.247  -3.567 -0.02 -0.00    +0.000 HD
DOCKED: BRANCH   4   8
DOCKED: ATOM      8  O   UNL     1      26.963 -15.550  -5.444 -1.13 +0.00    +0.000 OA
DOCKED: ATOM      9  H   UNL     1      26.268 -15.009  -5.851 -0.05 +0.00    +0.000 HD
DOCKED: ENDBRANCH   4   8
DOCKED: ENDBRANCH   3   5
DOCKED: ENDBRANCH   2   3
DOCKED: ENDBRANCH   1   2
DOCKED: BRANCH   1  10
DOCKED: ATOM     10  C   UNL     1      24.427 -17.761  -1.457 -0.72 -0.00    +0.000 C 
DOCKED: BRANCH  10  11
DOCKED: ATOM     11  C   UNL     1      23.709 -18.799  -0.575 -0.75 -0.00    +0.000 C 
DOCKED: BRANCH  11  12
DOCKED: ATOM     12  C   UNL     1      22.415 -19.357  -1.193 -0.68 -0.00    +0.000 C 
DOCKED: BRANCH  12  13
DOCKED: ATOM     13  C   UNL     1      21.185 -18.937  -0.439 -0.85 -0.00    +0.000 C 
DOCKED: ATOM     14  N   UNL     1      20.636 -19.779   0.580 -0.67 -0.00    +0.000 N 
DOCKED: ATOM     15  O   UNL     1      20.618 -17.849  -0.724 -2.33 -0.00    +0.000 OA
DOCKED: ATOM     16  H   UNL     1      21.066 -20.641   0.785 -0.59 -0.00    +0.000 HD
DOCKED: BRANCH  14  17
DOCKED: ATOM     17  O   UNL     1      19.530 -19.401   1.264 -0.72 -0.00    +0.000 OA
DOCKED: ATOM     18  H   UNL     1      19.112 -18.652   0.811 -0.33 -0.00    +0.000 HD
DOCKED: ENDBRANCH  14  17
DOCKED: ENDBRANCH  12  13
DOCKED: ENDBRANCH  11  12
DOCKED: ENDBRANCH  10  11
DOCKED: ENDBRANCH   1  10
DOCKED: TORSDOF 9
DOCKED: TER
DOCKED: ENDMDL
________________________________________________________________________________


	BEGINNING GENETIC ALGORITHM DOCKING 80 of 100
Run: 80 Seed: 2042696980 1905212849 [ Run 80 of 100 GA/GALS ]
Beginning LAMARCKIAN GENETIC ALGORITHM (LGA), with a maximum of 2500000 energy evaluations.

Final-Value: -13.367


	FINAL GENETIC ALGORITHM DOCKED STATE
	_______________________________________________


Detailed state:  trans 25.857 -16.060 -0.789 quatxyzw 0.053984 -0.430349 -0.370421 0.821385 center 0.359 0.163 0.443 ntor 9 179.7504 28.7311 -156.4476 -25.1610 -26.9829 143.5020 -133.7513 -124.8953 -5.0735
State:	 25.857 -16.060  -0.789   0.095 -0.755 -0.649 69.553    179.75   28.73 -156.45  -25.16  -26.98  143.50 -133.75 -124.90   -5.07

DOCKED: MODEL       80
DOCKED: USER    Run = 80
DOCKED: USER    DPF = ligand_dock.biased.dpf
DOCKED: USER  
DOCKED: USER    Estimated Free Energy of Binding    =   -9.32 kcal/mol  [=(1)+(2)+(3)-(4)]
DOCKED: USER    Estimated Inhibition Constant, Ki   =  146.12 nM (nanomolar)  [Temperature = 298.15 K]
DOCKED: USER    
DOCKED: USER    (1) Final Intermolecular Energy     =  -12.01 kcal/mol
DOCKED: USER        vdW + Hbond + desolv Energy     =  -12.01 kcal/mol
DOCKED: USER        Electrostatic Energy            =   +0.00 kcal/mol
DOCKED: USER    (2) Final Total Internal Energy     =   -1.36 kcal/mol
DOCKED: USER    (3) Torsional Free Energy           =   +2.68 kcal/mol
DOCKED: USER    (4) Unbound System's Energy  [=(2)] =   -1.36 kcal/mol
DOCKED: USER    
DOCKED: USER    
DOCKED: USER    NEWDPF move ligand.pdbqt
DOCKED: USER    NEWDPF about 0.359000 0.163000 0.443000
DOCKED: USER    NEWDPF tran0 25.856716 -16.059873 -0.789293
DOCKED: USER    NEWDPF quaternion0 0.053984 -0.430349 -0.370421 0.821385
DOCKED: USER    NEWDPF axisangle0 0.094647 -0.754504 -0.649435 69.552573
DOCKED: USER    NEWDPF quat0 0.094647 -0.754504 -0.649435 69.552573
DOCKED: USER    NEWDPF dihe0 179.75 28.73 -156.45 -25.16 -26.98 143.50 -133.75 -124.90 -5.07 
DOCKED: USER  keepresnum = 1 
DOCKED: USER  
DOCKED: REMARK  Name = 
DOCKED: REMARK  9 active torsions:
DOCKED: REMARK  status: ('A' for Active; 'I' for Inactive)
DOCKED: REMARK    1  A    between atoms: O_1  and  N_2
DOCKED: REMARK    2  A    between atoms: C_3  and  C_4
DOCKED: REMARK    3  A    between atoms: C_4  and  C_5
DOCKED: REMARK    4  A    between atoms: C_5  and  C_6
DOCKED: REMARK    5  A    between atoms: C_6  and  C_7
DOCKED: REMARK    6  A    between atoms: C_7  and  C_8
DOCKED: REMARK    7  A    between atoms: C_8  and  C_9
DOCKED: REMARK    8  A    between atoms: C_9  and  C_10
DOCKED: REMARK    9  A    between atoms: N_11  and  O_12
DOCKED: REMARK                            x       y       z     vdW  Elec       q    Type
DOCKED: REMARK                         _______ _______ _______ _____ _____    ______ ____
DOCKED: USER                              x       y       z     vdW  Elec       q    Type
DOCKED: USER                           _______ _______ _______ _____ _____    ______ ____
DOCKED: ROOT
DOCKED: ATOM      1  C   UNL     1      25.124 -16.593  -1.082 -0.60 -0.00    +0.000 C 
DOCKED: ENDROOT
DOCKED: BRANCH   1   2
DOCKED: ATOM      2  C   UNL     1      26.123 -16.043  -2.108 -0.50 -0.00    +0.000 C 
DOCKED: BRANCH   2   3
DOCKED: ATOM      3  C   UNL     1      25.506 -16.004  -3.509 -0.47 -0.00    +0.000 C 
DOCKED: BRANCH   3   5
DOCKED: ATOM      4  N   UNL     1      25.874 -13.556  -4.080 -0.42 -0.00    +0.000 N 
DOCKED: ATOM      5  C   UNL     1      26.153 -14.935  -4.338 -0.56 -0.00    +0.000 C 
DOCKED: ATOM      6  O   UNL     1      26.913 -15.257  -5.290 -1.05 +0.00    +0.000 OA
DOCKED: ATOM      7  H   UNL     1      25.252 -13.311  -3.358 -0.03 -0.00    +0.000 HD
DOCKED: BRANCH   4   8
DOCKED: ATOM      8  O   UNL     1      26.459 -12.586  -4.822 -0.32 -0.00    +0.000 OA
DOCKED: ATOM      9  H   UNL     1      27.042 -12.992  -5.483 -0.01 -0.00    +0.000 HD
DOCKED: ENDBRANCH   4   8
DOCKED: ENDBRANCH   3   5
DOCKED: ENDBRANCH   2   3
DOCKED: ENDBRANCH   1   2
DOCKED: BRANCH   1  10
DOCKED: ATOM     10  C   UNL     1      24.453 -17.874  -1.597 -0.69 -0.00    +0.000 C 
DOCKED: BRANCH  10  11
DOCKED: ATOM     11  C   UNL     1      23.374 -18.416  -0.642 -0.82 -0.00    +0.000 C 
DOCKED: BRANCH  11  12
DOCKED: ATOM     12  C   UNL     1      22.359 -19.357  -1.315 -0.65 -0.00    +0.000 C 
DOCKED: BRANCH  12  13
DOCKED: ATOM     13  C   UNL     1      20.941 -19.055  -0.922 -0.88 -0.00    +0.000 C 
DOCKED: ATOM     14  N   UNL     1      19.978 -20.108  -0.812 -0.75 -0.00    +0.000 N 
DOCKED: ATOM     15  O   UNL     1      20.590 -17.862  -0.713 -2.33 -0.00    +0.000 OA
DOCKED: ATOM     16  H   UNL     1      20.247 -21.036  -0.999 -0.46 -0.00    +0.000 HD
DOCKED: BRANCH  14  17
DOCKED: ATOM     17  O   UNL     1      18.700 -19.838  -0.454 -0.89 -0.00    +0.000 OA
DOCKED: ATOM     18  H   UNL     1      18.468 -18.940  -0.738 -0.56 -0.00    +0.000 HD
DOCKED: ENDBRANCH  14  17
DOCKED: ENDBRANCH  12  13
DOCKED: ENDBRANCH  11  12
DOCKED: ENDBRANCH  10  11
DOCKED: ENDBRANCH   1  10
DOCKED: TORSDOF 9
DOCKED: TER
DOCKED: ENDMDL
________________________________________________________________________________


	BEGINNING GENETIC ALGORITHM DOCKING 81 of 100
Run: 81 Seed: 1786803357 739885670 [ Run 81 of 100 GA/GALS ]
Beginning LAMARCKIAN GENETIC ALGORITHM (LGA), with a maximum of 2500000 energy evaluations.

Final-Value: -13.860


	FINAL GENETIC ALGORITHM DOCKED STATE
	_______________________________________________


Detailed state:  trans 25.492 -15.656 -0.499 quatxyzw 0.201360 -0.154619 -0.064990 0.965051 center 0.359 0.163 0.443 ntor 9 -179.5048 13.8897 -32.0013 165.5014 -162.6191 3.7442 -118.9569 161.4694 -100.2145
State:	 25.492 -15.656  -0.499   0.768 -0.590 -0.248 30.385   -179.50   13.89  -32.00  165.50 -162.62    3.74 -118.96  161.47 -100.21

DOCKED: MODEL       81
DOCKED: USER    Run = 81
DOCKED: USER    DPF = ligand_dock.biased.dpf
DOCKED: USER  
DOCKED: USER    Estimated Free Energy of Binding    =   -9.88 kcal/mol  [=(1)+(2)+(3)-(4)]
DOCKED: USER    Estimated Inhibition Constant, Ki   =   57.02 nM (nanomolar)  [Temperature = 298.15 K]
DOCKED: USER    
DOCKED: USER    (1) Final Intermolecular Energy     =  -12.57 kcal/mol
DOCKED: USER        vdW + Hbond + desolv Energy     =  -12.57 kcal/mol
DOCKED: USER        Electrostatic Energy            =   +0.00 kcal/mol
DOCKED: USER    (2) Final Total Internal Energy     =   -1.29 kcal/mol
DOCKED: USER    (3) Torsional Free Energy           =   +2.68 kcal/mol
DOCKED: USER    (4) Unbound System's Energy  [=(2)] =   -1.29 kcal/mol
DOCKED: USER    
DOCKED: USER    
DOCKED: USER    NEWDPF move ligand.pdbqt
DOCKED: USER    NEWDPF about 0.359000 0.163000 0.443000
DOCKED: USER    NEWDPF tran0 25.491965 -15.655540 -0.499085
DOCKED: USER    NEWDPF quaternion0 0.201360 -0.154619 -0.064990 0.965051
DOCKED: USER    NEWDPF axisangle0 0.768367 -0.590009 -0.247995 30.384957
DOCKED: USER    NEWDPF quat0 0.768367 -0.590009 -0.247995 30.384957
DOCKED: USER    NEWDPF dihe0 -179.50 13.89 -32.00 165.50 -162.62 3.74 -118.96 161.47 -100.21 
DOCKED: USER  keepresnum = 1 
DOCKED: USER  
DOCKED: REMARK  Name = 
DOCKED: REMARK  9 active torsions:
DOCKED: REMARK  status: ('A' for Active; 'I' for Inactive)
DOCKED: REMARK    1  A    between atoms: O_1  and  N_2
DOCKED: REMARK    2  A    between atoms: C_3  and  C_4
DOCKED: REMARK    3  A    between atoms: C_4  and  C_5
DOCKED: REMARK    4  A    between atoms: C_5  and  C_6
DOCKED: REMARK    5  A    between atoms: C_6  and  C_7
DOCKED: REMARK    6  A    between atoms: C_7  and  C_8
DOCKED: REMARK    7  A    between atoms: C_8  and  C_9
DOCKED: REMARK    8  A    between atoms: C_9  and  C_10
DOCKED: REMARK    9  A    between atoms: N_11  and  O_12
DOCKED: REMARK                            x       y       z     vdW  Elec       q    Type
DOCKED: REMARK                         _______ _______ _______ _____ _____    ______ ____
DOCKED: USER                              x       y       z     vdW  Elec       q    Type
DOCKED: USER                           _______ _______ _______ _____ _____    ______ ____
DOCKED: ROOT
DOCKED: ATOM      1  C   UNL     1      24.923 -16.014  -1.173 -0.44 -0.00    +0.000 C 
DOCKED: ENDROOT
DOCKED: BRANCH   1   2
DOCKED: ATOM      2  C   UNL     1      26.433 -16.272  -1.237 -0.47 -0.00    +0.000 C 
DOCKED: BRANCH   2   3
DOCKED: ATOM      3  C   UNL     1      26.929 -16.275  -2.686 -0.31 -0.00    +0.000 C 
DOCKED: BRANCH   3   5
DOCKED: ATOM      4  N   UNL     1      25.416 -14.320  -3.268 -0.46 -0.00    +0.000 N 
DOCKED: ATOM      5  C   UNL     1      25.926 -15.617  -3.585 -0.57 -0.00    +0.000 C 
DOCKED: ATOM      6  O   UNL     1      25.502 -16.229  -4.602 -0.66 -0.00    +0.000 OA
DOCKED: ATOM      7  H   UNL     1      25.722 -13.860  -2.454 -0.02 -0.00    +0.000 HD
DOCKED: BRANCH   4   8
DOCKED: ATOM      8  O   UNL     1      24.512 -13.718  -4.078 -1.10 -0.00    +0.000 OA
DOCKED: ATOM      9  H   UNL     1      24.310 -14.303  -4.826 -0.48 -0.00    +0.000 HD
DOCKED: ENDBRANCH   4   8
DOCKED: ENDBRANCH   3   5
DOCKED: ENDBRANCH   2   3
DOCKED: ENDBRANCH   1   2
DOCKED: BRANCH   1  10
DOCKED: ATOM     10  C   UNL     1      24.143 -17.125  -1.889 -0.45 -0.00    +0.000 C 
DOCKED: BRANCH  10  11
DOCKED: ATOM     11  C   UNL     1      23.792 -18.308  -0.968 -0.81 -0.00    +0.000 C 
DOCKED: BRANCH  11  12
DOCKED: ATOM     12  C   UNL     1      22.493 -18.114  -0.167 -0.80 -0.00    +0.000 C 
DOCKED: BRANCH  12  13
DOCKED: ATOM     13  C   UNL     1      21.270 -18.522  -0.939 -0.80 -0.00    +0.000 C 
DOCKED: ATOM     14  N   UNL     1      21.261 -19.736  -1.695 -0.56 -0.00    +0.000 N 
DOCKED: ATOM     15  O   UNL     1      20.255 -17.775  -0.941 -2.06 -0.00    +0.000 OA
DOCKED: ATOM     16  H   UNL     1      22.064 -20.307  -1.711 -0.39 -0.00    +0.000 HD
DOCKED: BRANCH  14  17
DOCKED: ATOM     17  O   UNL     1      20.159 -20.108  -2.388 -1.75 -0.00    +0.000 OA
DOCKED: ATOM     18  H   UNL     1      19.549 -19.356  -2.452 -0.44 -0.00    +0.000 HD
DOCKED: ENDBRANCH  14  17
DOCKED: ENDBRANCH  12  13
DOCKED: ENDBRANCH  11  12
DOCKED: ENDBRANCH  10  11
DOCKED: ENDBRANCH   1  10
DOCKED: TORSDOF 9
DOCKED: TER
DOCKED: ENDMDL
________________________________________________________________________________


	BEGINNING GENETIC ALGORITHM DOCKING 82 of 100
Run: 82 Seed: 2042987350 1199275946 [ Run 82 of 100 GA/GALS ]
Beginning LAMARCKIAN GENETIC ALGORITHM (LGA), with a maximum of 2500000 energy evaluations.

Final-Value: -13.376


	FINAL GENETIC ALGORITHM DOCKED STATE
	_______________________________________________


Detailed state:  trans 23.935 -17.250 -0.385 quatxyzw 0.340258 -0.169687 -0.799918 -0.464287 center 0.359 0.163 0.443 ntor 9 178.3766 -6.7852 16.9282 -179.9380 -48.2538 -62.0802 6.5284 -145.5226 -20.4408
State:	 23.935 -17.250  -0.385   0.384 -0.192 -0.903 -124.672    178.38   -6.79   16.93 -179.94  -48.25  -62.08    6.53 -145.52  -20.44

DOCKED: MODEL       82
DOCKED: USER    Run = 82
DOCKED: USER    DPF = ligand_dock.biased.dpf
DOCKED: USER  
DOCKED: USER    Estimated Free Energy of Binding    =   -9.17 kcal/mol  [=(1)+(2)+(3)-(4)]
DOCKED: USER    Estimated Inhibition Constant, Ki   =  189.57 nM (nanomolar)  [Temperature = 298.15 K]
DOCKED: USER    
DOCKED: USER    (1) Final Intermolecular Energy     =  -11.86 kcal/mol
DOCKED: USER        vdW + Hbond + desolv Energy     =  -11.86 kcal/mol
DOCKED: USER        Electrostatic Energy            =   +0.00 kcal/mol
DOCKED: USER    (2) Final Total Internal Energy     =   -1.52 kcal/mol
DOCKED: USER    (3) Torsional Free Energy           =   +2.68 kcal/mol
DOCKED: USER    (4) Unbound System's Energy  [=(2)] =   -1.52 kcal/mol
DOCKED: USER    
DOCKED: USER    
DOCKED: USER    NEWDPF move ligand.pdbqt
DOCKED: USER    NEWDPF about 0.359000 0.163000 0.443000
DOCKED: USER    NEWDPF tran0 23.935180 -17.249919 -0.385440
DOCKED: USER    NEWDPF quaternion0 0.340258 -0.169687 -0.799918 -0.464287
DOCKED: USER    NEWDPF axisangle0 0.384175 -0.191588 -0.903163 -124.671870
DOCKED: USER    NEWDPF quat0 0.384175 -0.191588 -0.903163 -124.671870
DOCKED: USER    NEWDPF dihe0 178.38 -6.79 16.93 -179.94 -48.25 -62.08 6.53 -145.52 -20.44 
DOCKED: USER  keepresnum = 1 
DOCKED: USER  
DOCKED: REMARK  Name = 
DOCKED: REMARK  9 active torsions:
DOCKED: REMARK  status: ('A' for Active; 'I' for Inactive)
DOCKED: REMARK    1  A    between atoms: O_1  and  N_2
DOCKED: REMARK    2  A    between atoms: C_3  and  C_4
DOCKED: REMARK    3  A    between atoms: C_4  and  C_5
DOCKED: REMARK    4  A    between atoms: C_5  and  C_6
DOCKED: REMARK    5  A    between atoms: C_6  and  C_7
DOCKED: REMARK    6  A    between atoms: C_7  and  C_8
DOCKED: REMARK    7  A    between atoms: C_8  and  C_9
DOCKED: REMARK    8  A    between atoms: C_9  and  C_10
DOCKED: REMARK    9  A    between atoms: N_11  and  O_12
DOCKED: REMARK                            x       y       z     vdW  Elec       q    Type
DOCKED: REMARK                         _______ _______ _______ _____ _____    ______ ____
DOCKED: USER                              x       y       z     vdW  Elec       q    Type
DOCKED: USER                           _______ _______ _______ _____ _____    ______ ____
DOCKED: ROOT
DOCKED: ATOM      1  C   UNL     1      24.692 -16.933  -0.868 -0.64 -0.00    +0.000 C 
DOCKED: ENDROOT
DOCKED: BRANCH   1   2
DOCKED: ATOM      2  C   UNL     1      23.723 -17.918  -1.534 -0.71 -0.00    +0.000 C 
DOCKED: BRANCH   2   3
DOCKED: ATOM      3  C   UNL     1      22.868 -18.639  -0.488 -0.83 -0.00    +0.000 C 
DOCKED: BRANCH   3   5
DOCKED: ATOM      4  N   UNL     1      20.816 -19.754  -1.489 -0.77 -0.00    +0.000 N 
DOCKED: ATOM      5  C   UNL     1      21.422 -18.609  -0.882 -0.83 -0.00    +0.000 C 
DOCKED: ATOM      6  O   UNL     1      20.749 -17.557  -0.712 -2.12 +0.00    +0.000 OA
DOCKED: ATOM      7  H   UNL     1      21.354 -20.561  -1.652 -0.29 -0.00    +0.000 HD
DOCKED: BRANCH   4   8
DOCKED: ATOM      8  O   UNL     1      19.509 -19.735  -1.843 -1.67 -0.00    +0.000 OA
DOCKED: ATOM      9  H   UNL     1      19.120 -18.881  -1.593 -0.56 -0.00    +0.000 HD
DOCKED: ENDBRANCH   4   8
DOCKED: ENDBRANCH   3   5
DOCKED: ENDBRANCH   2   3
DOCKED: ENDBRANCH   1   2
DOCKED: BRANCH   1  10
DOCKED: ATOM     10  C   UNL     1      25.415 -16.075  -1.917 -0.56 -0.00    +0.000 C 
DOCKED: BRANCH  10  11
DOCKED: ATOM     11  C   UNL     1      26.177 -14.886  -1.304 -0.38 -0.00    +0.000 C 
DOCKED: BRANCH  11  12
DOCKED: ATOM     12  C   UNL     1      27.562 -14.642  -1.929 -0.24 -0.00    +0.000 C 
DOCKED: BRANCH  12  13
DOCKED: ATOM     13  C   UNL     1      27.708 -15.281  -3.281 -0.31 -0.00    +0.000 C 
DOCKED: ATOM     14  N   UNL     1      26.817 -14.937  -4.346 -0.43 -0.00    +0.000 N 
DOCKED: ATOM     15  O   UNL     1      28.605 -16.146  -3.470 -0.30 -0.00    +0.000 OA
DOCKED: ATOM     16  H   UNL     1      26.101 -14.279  -4.190 -0.02 -0.00    +0.000 HD
DOCKED: BRANCH  14  17
DOCKED: ATOM     17  O   UNL     1      26.949 -15.509  -5.566 -1.15 +0.00    +0.000 OA
DOCKED: ATOM     18  H   UNL     1      27.757 -16.045  -5.585 -0.05 +0.00    +0.000 HD
DOCKED: ENDBRANCH  14  17
DOCKED: ENDBRANCH  12  13
DOCKED: ENDBRANCH  11  12
DOCKED: ENDBRANCH  10  11
DOCKED: ENDBRANCH   1  10
DOCKED: TORSDOF 9
DOCKED: TER
DOCKED: ENDMDL
________________________________________________________________________________


	BEGINNING GENETIC ALGORITHM DOCKING 83 of 100
Run: 83 Seed: 2134086066 238695997 [ Run 83 of 100 GA/GALS ]
Beginning LAMARCKIAN GENETIC ALGORITHM (LGA), with a maximum of 2500000 energy evaluations.

Final-Value: -13.940


	FINAL GENETIC ALGORITHM DOCKED STATE
	_______________________________________________


Detailed state:  trans 24.754 -18.329 0.420 quatxyzw -0.050135 -0.174365 0.841049 0.509627 center 0.359 0.163 0.443 ntor 9 -158.7726 164.3057 157.1280 -81.1217 50.9359 -156.7431 -156.4021 47.9713 32.0370
State:	 24.754 -18.329   0.420  -0.058 -0.203  0.978 118.722   -158.77  164.31  157.13  -81.12   50.94 -156.74 -156.40   47.97   32.04

DOCKED: MODEL       83
DOCKED: USER    Run = 83
DOCKED: USER    DPF = ligand_dock.biased.dpf
DOCKED: USER  
DOCKED: USER    Estimated Free Energy of Binding    =  -10.17 kcal/mol  [=(1)+(2)+(3)-(4)]
DOCKED: USER    Estimated Inhibition Constant, Ki   =   35.08 nM (nanomolar)  [Temperature = 298.15 K]
DOCKED: USER    
DOCKED: USER    (1) Final Intermolecular Energy     =  -12.85 kcal/mol
DOCKED: USER        vdW + Hbond + desolv Energy     =  -12.85 kcal/mol
DOCKED: USER        Electrostatic Energy            =   +0.00 kcal/mol
DOCKED: USER    (2) Final Total Internal Energy     =   -1.09 kcal/mol
DOCKED: USER    (3) Torsional Free Energy           =   +2.68 kcal/mol
DOCKED: USER    (4) Unbound System's Energy  [=(2)] =   -1.09 kcal/mol
DOCKED: USER    
DOCKED: USER    
DOCKED: USER    NEWDPF move ligand.pdbqt
DOCKED: USER    NEWDPF about 0.359000 0.163000 0.443000
DOCKED: USER    NEWDPF tran0 24.753794 -18.329293 0.420473
DOCKED: USER    NEWDPF quaternion0 -0.050135 -0.174365 0.841049 0.509627
DOCKED: USER    NEWDPF axisangle0 -0.058270 -0.202657 0.977515 118.721997
DOCKED: USER    NEWDPF quat0 -0.058270 -0.202657 0.977515 118.721997
DOCKED: USER    NEWDPF dihe0 -158.77 164.31 157.13 -81.12 50.94 -156.74 -156.40 47.97 32.04 
DOCKED: USER  keepresnum = 1 
DOCKED: USER  
DOCKED: REMARK  Name = 
DOCKED: REMARK  9 active torsions:
DOCKED: REMARK  status: ('A' for Active; 'I' for Inactive)
DOCKED: REMARK    1  A    between atoms: O_1  and  N_2
DOCKED: REMARK    2  A    between atoms: C_3  and  C_4
DOCKED: REMARK    3  A    between atoms: C_4  and  C_5
DOCKED: REMARK    4  A    between atoms: C_5  and  C_6
DOCKED: REMARK    5  A    between atoms: C_6  and  C_7
DOCKED: REMARK    6  A    between atoms: C_7  and  C_8
DOCKED: REMARK    7  A    between atoms: C_8  and  C_9
DOCKED: REMARK    8  A    between atoms: C_9  and  C_10
DOCKED: REMARK    9  A    between atoms: N_11  and  O_12
DOCKED: REMARK                            x       y       z     vdW  Elec       q    Type
DOCKED: REMARK                         _______ _______ _______ _____ _____    ______ ____
DOCKED: USER                              x       y       z     vdW  Elec       q    Type
DOCKED: USER                           _______ _______ _______ _____ _____    ______ ____
DOCKED: ROOT
DOCKED: ATOM      1  C   UNL     1      24.858 -17.749  -0.327 -0.69 -0.00    +0.000 C 
DOCKED: ENDROOT
DOCKED: BRANCH   1   2
DOCKED: ATOM      2  C   UNL     1      23.769 -18.828  -0.348 -0.65 -0.00    +0.000 C 
DOCKED: BRANCH   2   3
DOCKED: ATOM      3  C   UNL     1      22.958 -18.765  -1.646 -0.63 -0.00    +0.000 C 
DOCKED: BRANCH   3   5
DOCKED: ATOM      4  N   UNL     1      20.628 -19.761  -1.825 -0.79 -0.00    +0.000 N 
DOCKED: ATOM      5  C   UNL     1      21.490 -18.725  -1.347 -0.53 -0.00    +0.000 C 
DOCKED: ATOM      6  O   UNL     1      21.009 -17.753  -0.705 -2.14 -0.00    +0.000 OA
DOCKED: ATOM      7  H   UNL     1      21.002 -20.500  -2.357 -0.46 -0.00    +0.000 HD
DOCKED: BRANCH   4   8
DOCKED: ATOM      8  O   UNL     1      19.302 -19.733  -1.555 -1.31 -0.00    +0.000 OA
DOCKED: ATOM      9  H   UNL     1      19.036 -18.825  -1.335 -0.53 -0.00    +0.000 HD
DOCKED: ENDBRANCH   4   8
DOCKED: ENDBRANCH   3   5
DOCKED: ENDBRANCH   2   3
DOCKED: ENDBRANCH   1   2
DOCKED: BRANCH   1  10
DOCKED: ATOM     10  C   UNL     1      24.485 -16.570  -1.237 -0.58 -0.00    +0.000 C 
DOCKED: BRANCH  10  11
DOCKED: ATOM     11  C   UNL     1      25.679 -16.030  -2.045 -0.54 -0.00    +0.000 C 
DOCKED: BRANCH  11  12
DOCKED: ATOM     12  C   UNL     1      27.042 -16.241  -1.364 -0.41 -0.00    +0.000 C 
DOCKED: BRANCH  12  13
DOCKED: ATOM     13  C   UNL     1      27.273 -15.291  -0.223 -0.33 -0.00    +0.000 C 
DOCKED: ATOM     14  N   UNL     1      28.207 -15.613   0.812 -0.12 -0.00    +0.000 N 
DOCKED: ATOM     15  O   UNL     1      26.620 -14.214  -0.164 -0.34 -0.00    +0.000 OA
DOCKED: ATOM     16  H   UNL     1      28.699 -16.466   0.777 -0.61 -0.00    +0.000 HD
DOCKED: BRANCH  14  17
DOCKED: ATOM     17  O   UNL     1      28.419 -14.757   1.839 -0.27 -0.00    +0.000 OA
DOCKED: ATOM     18  H   UNL     1      28.875 -15.222   2.558 -1.95 -0.00    +0.000 HD
DOCKED: ENDBRANCH  14  17
DOCKED: ENDBRANCH  12  13
DOCKED: ENDBRANCH  11  12
DOCKED: ENDBRANCH  10  11
DOCKED: ENDBRANCH   1  10
DOCKED: TORSDOF 9
DOCKED: TER
DOCKED: ENDMDL
________________________________________________________________________________


	BEGINNING GENETIC ALGORITHM DOCKING 84 of 100
Run: 84 Seed: 981177002 1091841745 [ Run 84 of 100 GA/GALS ]
Beginning LAMARCKIAN GENETIC ALGORITHM (LGA), with a maximum of 2500000 energy evaluations.

Final-Value: -14.136


	FINAL GENETIC ALGORITHM DOCKED STATE
	_______________________________________________


Detailed state:  trans 26.643 -17.715 -1.457 quatxyzw 0.734412 0.469512 0.172580 -0.458708 center 0.359 0.163 0.443 ntor 9 179.9380 17.7585 -86.3907 -28.8092 45.0094 -179.9625 170.1744 -22.7535 -17.4397
State:	 26.643 -17.715  -1.457   0.826  0.528  0.194 -125.392    179.94   17.76  -86.39  -28.81   45.01 -179.96  170.17  -22.75  -17.44

DOCKED: MODEL       84
DOCKED: USER    Run = 84
DOCKED: USER    DPF = ligand_dock.biased.dpf
DOCKED: USER  
DOCKED: USER    Estimated Free Energy of Binding    =   -9.93 kcal/mol  [=(1)+(2)+(3)-(4)]
DOCKED: USER    Estimated Inhibition Constant, Ki   =   52.59 nM (nanomolar)  [Temperature = 298.15 K]
DOCKED: USER    
DOCKED: USER    (1) Final Intermolecular Energy     =  -12.62 kcal/mol
DOCKED: USER        vdW + Hbond + desolv Energy     =  -12.62 kcal/mol
DOCKED: USER        Electrostatic Energy            =   +0.00 kcal/mol
DOCKED: USER    (2) Final Total Internal Energy     =   -1.52 kcal/mol
DOCKED: USER    (3) Torsional Free Energy           =   +2.68 kcal/mol
DOCKED: USER    (4) Unbound System's Energy  [=(2)] =   -1.52 kcal/mol
DOCKED: USER    
DOCKED: USER    
DOCKED: USER    NEWDPF move ligand.pdbqt
DOCKED: USER    NEWDPF about 0.359000 0.163000 0.443000
DOCKED: USER    NEWDPF tran0 26.642862 -17.714532 -1.457481
DOCKED: USER    NEWDPF quaternion0 0.734412 0.469512 0.172580 -0.458708
DOCKED: USER    NEWDPF axisangle0 0.826495 0.528380 0.194219 -125.392400
DOCKED: USER    NEWDPF quat0 0.826495 0.528380 0.194219 -125.392400
DOCKED: USER    NEWDPF dihe0 179.94 17.76 -86.39 -28.81 45.01 -179.96 170.17 -22.75 -17.44 
DOCKED: USER  keepresnum = 1 
DOCKED: USER  
DOCKED: REMARK  Name = 
DOCKED: REMARK  9 active torsions:
DOCKED: REMARK  status: ('A' for Active; 'I' for Inactive)
DOCKED: REMARK    1  A    between atoms: O_1  and  N_2
DOCKED: REMARK    2  A    between atoms: C_3  and  C_4
DOCKED: REMARK    3  A    between atoms: C_4  and  C_5
DOCKED: REMARK    4  A    between atoms: C_5  and  C_6
DOCKED: REMARK    5  A    between atoms: C_6  and  C_7
DOCKED: REMARK    6  A    between atoms: C_7  and  C_8
DOCKED: REMARK    7  A    between atoms: C_8  and  C_9
DOCKED: REMARK    8  A    between atoms: C_9  and  C_10
DOCKED: REMARK    9  A    between atoms: N_11  and  O_12
DOCKED: REMARK                            x       y       z     vdW  Elec       q    Type
DOCKED: REMARK                         _______ _______ _______ _____ _____    ______ ____
DOCKED: USER                              x       y       z     vdW  Elec       q    Type
DOCKED: USER                           _______ _______ _______ _____ _____    ______ ____
DOCKED: ROOT
DOCKED: ATOM      1  C   UNL     1      25.880 -17.553  -0.911 -0.62 -0.00    +0.000 C 
DOCKED: ENDROOT
DOCKED: BRANCH   1   2
DOCKED: ATOM      2  C   UNL     1      26.503 -16.400  -1.708 -0.47 -0.00    +0.000 C 
DOCKED: BRANCH   2   3
DOCKED: ATOM      3  C   UNL     1      25.426 -15.425  -2.196 -0.47 -0.00    +0.000 C 
DOCKED: BRANCH   3   5
DOCKED: ATOM      4  N   UNL     1      26.799 -15.571  -4.328 -0.47 -0.00    +0.000 N 
DOCKED: ATOM      5  C   UNL     1      25.657 -15.065  -3.632 -0.57 -0.00    +0.000 C 
DOCKED: ATOM      6  O   UNL     1      24.862 -14.280  -4.216 -1.05 -0.00    +0.000 OA
DOCKED: ATOM      7  H   UNL     1      27.437 -16.155  -3.858 -0.02 -0.00    +0.000 HD
DOCKED: BRANCH   4   8
DOCKED: ATOM      8  O   UNL     1      27.011 -15.253  -5.627 -1.14 +0.00    +0.000 OA
DOCKED: ATOM      9  H   UNL     1      26.296 -14.674  -5.938 -0.01 +0.00    +0.000 HD
DOCKED: ENDBRANCH   4   8
DOCKED: ENDBRANCH   3   5
DOCKED: ENDBRANCH   2   3
DOCKED: ENDBRANCH   1   2
DOCKED: BRANCH   1  10
DOCKED: ATOM     10  C   UNL     1      24.391 -17.296  -0.641 -0.68 -0.00    +0.000 C 
DOCKED: BRANCH  10  11
DOCKED: ATOM     11  C   UNL     1      23.669 -18.512  -0.032 -0.68 -0.00    +0.000 C 
DOCKED: BRANCH  11  12
DOCKED: ATOM     12  C   UNL     1      22.885 -19.352  -1.056 -0.74 -0.00    +0.000 C 
DOCKED: BRANCH  12  13
DOCKED: ATOM     13  C   UNL     1      21.419 -19.024  -1.072 -0.85 -0.00    +0.000 C 
DOCKED: ATOM     14  N   UNL     1      20.456 -20.023  -1.423 -0.73 -0.00    +0.000 N 
DOCKED: ATOM     15  O   UNL     1      21.036 -17.854  -0.801 -2.11 -0.00    +0.000 OA
DOCKED: ATOM     16  H   UNL     1      20.757 -20.930  -1.658 -0.28 -0.00    +0.000 HD
DOCKED: BRANCH  14  17
DOCKED: ATOM     17  O   UNL     1      19.133 -19.730  -1.434 -1.15 -0.00    +0.000 OA
DOCKED: ATOM     18  H   UNL     1      19.016 -18.768  -1.461 -0.59 -0.00    +0.000 HD
DOCKED: ENDBRANCH  14  17
DOCKED: ENDBRANCH  12  13
DOCKED: ENDBRANCH  11  12
DOCKED: ENDBRANCH  10  11
DOCKED: ENDBRANCH   1  10
DOCKED: TORSDOF 9
DOCKED: TER
DOCKED: ENDMDL
________________________________________________________________________________


	BEGINNING GENETIC ALGORITHM DOCKING 85 of 100
Run: 85 Seed: 1242083159 1154643215 [ Run 85 of 100 GA/GALS ]
Beginning LAMARCKIAN GENETIC ALGORITHM (LGA), with a maximum of 2500000 energy evaluations.

Final-Value: -12.942


	FINAL GENETIC ALGORITHM DOCKED STATE
	_______________________________________________


Detailed state:  trans 22.613 -17.880 -1.884 quatxyzw 0.004758 -0.922320 0.254595 -0.290662 center 0.359 0.163 0.443 ntor 9 162.8706 2.0794 178.9541 21.7181 42.3206 180.0000 89.8574 166.0380 -21.9773
State:	 22.613 -17.880  -1.884   0.005 -0.964  0.266 -146.205    162.87    2.08  178.95   21.72   42.32  180.00   89.86  166.04  -21.98

DOCKED: MODEL       85
DOCKED: USER    Run = 85
DOCKED: USER    DPF = ligand_dock.biased.dpf
DOCKED: USER  
DOCKED: USER    Estimated Free Energy of Binding    =   -8.77 kcal/mol  [=(1)+(2)+(3)-(4)]
DOCKED: USER    Estimated Inhibition Constant, Ki   =  373.01 nM (nanomolar)  [Temperature = 298.15 K]
DOCKED: USER    
DOCKED: USER    (1) Final Intermolecular Energy     =  -11.45 kcal/mol
DOCKED: USER        vdW + Hbond + desolv Energy     =  -11.45 kcal/mol
DOCKED: USER        Electrostatic Energy            =   +0.00 kcal/mol
DOCKED: USER    (2) Final Total Internal Energy     =   -1.49 kcal/mol
DOCKED: USER    (3) Torsional Free Energy           =   +2.68 kcal/mol
DOCKED: USER    (4) Unbound System's Energy  [=(2)] =   -1.49 kcal/mol
DOCKED: USER    
DOCKED: USER    
DOCKED: USER    NEWDPF move ligand.pdbqt
DOCKED: USER    NEWDPF about 0.359000 0.163000 0.443000
DOCKED: USER    NEWDPF tran0 22.613159 -17.880438 -1.883523
DOCKED: USER    NEWDPF quaternion0 0.004758 -0.922320 0.254595 -0.290662
DOCKED: USER    NEWDPF axisangle0 0.004973 -0.963937 0.266083 -146.204850
DOCKED: USER    NEWDPF quat0 0.004973 -0.963937 0.266083 -146.204850
DOCKED: USER    NEWDPF dihe0 162.87 2.08 178.95 21.72 42.32 180.00 89.86 166.04 -21.98 
DOCKED: USER  keepresnum = 1 
DOCKED: USER  
DOCKED: REMARK  Name = 
DOCKED: REMARK  9 active torsions:
DOCKED: REMARK  status: ('A' for Active; 'I' for Inactive)
DOCKED: REMARK    1  A    between atoms: O_1  and  N_2
DOCKED: REMARK    2  A    between atoms: C_3  and  C_4
DOCKED: REMARK    3  A    between atoms: C_4  and  C_5
DOCKED: REMARK    4  A    between atoms: C_5  and  C_6
DOCKED: REMARK    5  A    between atoms: C_6  and  C_7
DOCKED: REMARK    6  A    between atoms: C_7  and  C_8
DOCKED: REMARK    7  A    between atoms: C_8  and  C_9
DOCKED: REMARK    8  A    between atoms: C_9  and  C_10
DOCKED: REMARK    9  A    between atoms: N_11  and  O_12
DOCKED: REMARK                            x       y       z     vdW  Elec       q    Type
DOCKED: REMARK                         _______ _______ _______ _____ _____    ______ ____
DOCKED: USER                              x       y       z     vdW  Elec       q    Type
DOCKED: USER                           _______ _______ _______ _____ _____    ______ ____
DOCKED: ROOT
DOCKED: ATOM      1  C   UNL     1      23.366 -17.483  -1.458 -0.60 -0.00    +0.000 C 
DOCKED: ENDROOT
DOCKED: BRANCH   1   2
DOCKED: ATOM      2  C   UNL     1      22.122 -17.833  -0.632 -0.82 -0.00    +0.000 C 
DOCKED: BRANCH   2   3
DOCKED: ATOM      3  C   UNL     1      21.893 -19.347  -0.598 -0.78 -0.00    +0.000 C 
DOCKED: BRANCH   3   5
DOCKED: ATOM      4  N   UNL     1      19.610 -19.919   0.358 -0.73 -0.00    +0.000 N 
DOCKED: ATOM      5  C   UNL     1      20.438 -19.662  -0.779 -0.88 -0.00    +0.000 C 
DOCKED: ATOM      6  O   UNL     1      19.955 -19.739  -1.940 -1.88 -0.00    +0.000 OA
DOCKED: ATOM      7  H   UNL     1      20.000 -19.893   1.261 -0.06 -0.00    +0.000 HD
DOCKED: BRANCH   4   8
DOCKED: ATOM      8  O   UNL     1      18.294 -20.200   0.202 -0.80 -0.00    +0.000 OA
DOCKED: ATOM      9  H   UNL     1      18.009 -19.928  -0.685 -0.42 -0.00    +0.000 HD
DOCKED: ENDBRANCH   4   8
DOCKED: ENDBRANCH   3   5
DOCKED: ENDBRANCH   2   3
DOCKED: ENDBRANCH   1   2
DOCKED: BRANCH   1  10
DOCKED: ATOM     10  C   UNL     1      24.626 -17.476  -0.581 -0.69 -0.00    +0.000 C 
DOCKED: BRANCH  10  11
DOCKED: ATOM     11  C   UNL     1      25.931 -17.452  -1.398 -0.57 -0.00    +0.000 C 
DOCKED: BRANCH  11  12
DOCKED: ATOM     12  C   UNL     1      26.446 -16.037  -1.714 -0.45 -0.00    +0.000 C 
DOCKED: BRANCH  12  13
DOCKED: ATOM     13  C   UNL     1      26.072 -15.579  -3.095 -0.52 -0.00    +0.000 C 
DOCKED: ATOM     14  N   UNL     1      27.020 -15.647  -4.164 -0.40 -0.00    +0.000 N 
DOCKED: ATOM     15  O   UNL     1      24.922 -15.107  -3.307 -0.67 -0.00    +0.000 OA
DOCKED: ATOM     16  H   UNL     1      27.926 -15.994  -3.991 -0.02 -0.00    +0.000 HD
DOCKED: BRANCH  14  17
DOCKED: ATOM     17  O   UNL     1      26.684 -15.239  -5.410 -1.11 +0.00    +0.000 OA
DOCKED: ATOM     18  H   UNL     1      25.776 -14.898  -5.404 -0.05 -0.00    +0.000 HD
DOCKED: ENDBRANCH  14  17
DOCKED: ENDBRANCH  12  13
DOCKED: ENDBRANCH  11  12
DOCKED: ENDBRANCH  10  11
DOCKED: ENDBRANCH   1  10
DOCKED: TORSDOF 9
DOCKED: TER
DOCKED: ENDMDL
________________________________________________________________________________


	BEGINNING GENETIC ALGORITHM DOCKING 86 of 100
Run: 86 Seed: 113873994 1028839255 [ Run 86 of 100 GA/GALS ]
Beginning LAMARCKIAN GENETIC ALGORITHM (LGA), with a maximum of 2500000 energy evaluations.

Final-Value: -14.057


	FINAL GENETIC ALGORITHM DOCKED STATE
	_______________________________________________


Detailed state:  trans 23.966 -19.044 -0.955 quatxyzw -0.251478 -0.610415 0.751095 0.002929 center 0.359 0.163 0.443 ntor 9 -179.4558 -12.2367 114.6689 88.0455 -13.4867 155.4221 10.7812 -177.2150 59.4837
State:	 23.966 -19.044  -0.955  -0.251 -0.610  0.751 179.664   -179.46  -12.24  114.67   88.05  -13.49  155.42   10.78 -177.21   59.48

DOCKED: MODEL       86
DOCKED: USER    Run = 86
DOCKED: USER    DPF = ligand_dock.biased.dpf
DOCKED: USER  
DOCKED: USER    Estimated Free Energy of Binding    =   -9.84 kcal/mol  [=(1)+(2)+(3)-(4)]
DOCKED: USER    Estimated Inhibition Constant, Ki   =   61.23 nM (nanomolar)  [Temperature = 298.15 K]
DOCKED: USER    
DOCKED: USER    (1) Final Intermolecular Energy     =  -12.53 kcal/mol
DOCKED: USER        vdW + Hbond + desolv Energy     =  -12.53 kcal/mol
DOCKED: USER        Electrostatic Energy            =   +0.00 kcal/mol
DOCKED: USER    (2) Final Total Internal Energy     =   -1.53 kcal/mol
DOCKED: USER    (3) Torsional Free Energy           =   +2.68 kcal/mol
DOCKED: USER    (4) Unbound System's Energy  [=(2)] =   -1.53 kcal/mol
DOCKED: USER    
DOCKED: USER    
DOCKED: USER    NEWDPF move ligand.pdbqt
DOCKED: USER    NEWDPF about 0.359000 0.163000 0.443000
DOCKED: USER    NEWDPF tran0 23.965695 -19.044107 -0.955077
DOCKED: USER    NEWDPF quaternion0 -0.251478 -0.610415 0.751095 0.002929
DOCKED: USER    NEWDPF axisangle0 -0.251479 -0.610418 0.751098 179.664318
DOCKED: USER    NEWDPF quat0 -0.251479 -0.610418 0.751098 179.664318
DOCKED: USER    NEWDPF dihe0 -179.46 -12.24 114.67 88.05 -13.49 155.42 10.78 -177.21 59.48 
DOCKED: USER  keepresnum = 1 
DOCKED: USER  
DOCKED: REMARK  Name = 
DOCKED: REMARK  9 active torsions:
DOCKED: REMARK  status: ('A' for Active; 'I' for Inactive)
DOCKED: REMARK    1  A    between atoms: O_1  and  N_2
DOCKED: REMARK    2  A    between atoms: C_3  and  C_4
DOCKED: REMARK    3  A    between atoms: C_4  and  C_5
DOCKED: REMARK    4  A    between atoms: C_5  and  C_6
DOCKED: REMARK    5  A    between atoms: C_6  and  C_7
DOCKED: REMARK    6  A    between atoms: C_7  and  C_8
DOCKED: REMARK    7  A    between atoms: C_8  and  C_9
DOCKED: REMARK    8  A    between atoms: C_9  and  C_10
DOCKED: REMARK    9  A    between atoms: N_11  and  O_12
DOCKED: REMARK                            x       y       z     vdW  Elec       q    Type
DOCKED: REMARK                         _______ _______ _______ _____ _____    ______ ____
DOCKED: USER                              x       y       z     vdW  Elec       q    Type
DOCKED: USER                           _______ _______ _______ _____ _____    ______ ____
DOCKED: ROOT
DOCKED: ATOM      1  C   UNL     1      24.605 -18.339  -0.966 -0.72 -0.00    +0.000 C 
DOCKED: ENDROOT
DOCKED: BRANCH   1   2
DOCKED: ATOM      2  C   UNL     1      23.108 -18.010  -1.026 -0.80 -0.00    +0.000 C 
DOCKED: BRANCH   2   3
DOCKED: ATOM      3  C   UNL     1      22.283 -19.260  -1.347 -0.67 -0.00    +0.000 C 
DOCKED: BRANCH   3   5
DOCKED: ATOM      4  N   UNL     1      19.923 -20.106  -0.940 -0.73 -0.00    +0.000 N 
DOCKED: ATOM      5  C   UNL     1      20.828 -19.009  -1.089 -0.87 -0.00    +0.000 C 
DOCKED: ATOM      6  O   UNL     1      20.396 -17.826  -1.044 -2.18 -0.00    +0.000 OA
DOCKED: ATOM      7  H   UNL     1      20.258 -21.028  -1.011 -0.46 -0.00    +0.000 HD
DOCKED: BRANCH   4   8
DOCKED: ATOM      8  O   UNL     1      18.608 -19.886  -0.702 -0.83 -0.00    +0.000 OA
DOCKED: ATOM      9  H   UNL     1      18.441 -18.931  -0.670 -0.54 -0.00    +0.000 HD
DOCKED: ENDBRANCH   4   8
DOCKED: ENDBRANCH   3   5
DOCKED: ENDBRANCH   2   3
DOCKED: ENDBRANCH   1   2
DOCKED: BRANCH   1  10
DOCKED: ATOM     10  C   UNL     1      25.402 -17.174  -0.362 -0.55 -0.00    +0.000 C 
DOCKED: BRANCH  10  11
DOCKED: ATOM     11  C   UNL     1      26.320 -16.477  -1.383 -0.50 -0.00    +0.000 C 
DOCKED: BRANCH  11  12
DOCKED: ATOM     12  C   UNL     1      25.824 -15.090  -1.826 -0.42 -0.00    +0.000 C 
DOCKED: BRANCH  12  13
DOCKED: ATOM     13  C   UNL     1      25.645 -14.986  -3.314 -0.54 -0.00    +0.000 C 
DOCKED: ATOM     14  N   UNL     1      26.512 -15.701  -4.200 -0.45 -0.00    +0.000 N 
DOCKED: ATOM     15  O   UNL     1      24.743 -14.243  -3.785 -1.01 -0.00    +0.000 OA
DOCKED: ATOM     16  H   UNL     1      27.232 -16.262  -3.831 -0.02 -0.00    +0.000 HD
DOCKED: BRANCH  14  17
DOCKED: ATOM     17  O   UNL     1      26.350 -15.613  -5.542 -1.20 +0.00    +0.000 OA
DOCKED: ATOM     18  H   UNL     1      25.499 -15.190  -5.737 -0.02 -0.00    +0.000 HD
DOCKED: ENDBRANCH  14  17
DOCKED: ENDBRANCH  12  13
DOCKED: ENDBRANCH  11  12
DOCKED: ENDBRANCH  10  11
DOCKED: ENDBRANCH   1  10
DOCKED: TORSDOF 9
DOCKED: TER
DOCKED: ENDMDL
________________________________________________________________________________


	BEGINNING GENETIC ALGORITHM DOCKING 87 of 100
Run: 87 Seed: 1468115695 87159151 [ Run 87 of 100 GA/GALS ]
Beginning LAMARCKIAN GENETIC ALGORITHM (LGA), with a maximum of 2500000 energy evaluations.

Final-Value: -13.979


	FINAL GENETIC ALGORITHM DOCKED STATE
	_______________________________________________


Detailed state:  trans 26.032 -15.139 -1.725 quatxyzw 0.642845 0.295079 0.385394 0.592579 center 0.359 0.163 0.443 ntor 9 -177.0293 2.4189 -168.3249 -100.0294 29.3894 151.2683 -5.3402 -74.0160 -139.8402
State:	 26.032 -15.139  -1.725   0.798  0.366  0.478 107.320   -177.03    2.42 -168.32 -100.03   29.39  151.27   -5.34  -74.02 -139.84

DOCKED: MODEL       87
DOCKED: USER    Run = 87
DOCKED: USER    DPF = ligand_dock.biased.dpf
DOCKED: USER  
DOCKED: USER    Estimated Free Energy of Binding    =   -9.83 kcal/mol  [=(1)+(2)+(3)-(4)]
DOCKED: USER    Estimated Inhibition Constant, Ki   =   62.14 nM (nanomolar)  [Temperature = 298.15 K]
DOCKED: USER    
DOCKED: USER    (1) Final Intermolecular Energy     =  -12.52 kcal/mol
DOCKED: USER        vdW + Hbond + desolv Energy     =  -12.52 kcal/mol
DOCKED: USER        Electrostatic Energy            =   +0.00 kcal/mol
DOCKED: USER    (2) Final Total Internal Energy     =   -1.46 kcal/mol
DOCKED: USER    (3) Torsional Free Energy           =   +2.68 kcal/mol
DOCKED: USER    (4) Unbound System's Energy  [=(2)] =   -1.46 kcal/mol
DOCKED: USER    
DOCKED: USER    
DOCKED: USER    NEWDPF move ligand.pdbqt
DOCKED: USER    NEWDPF about 0.359000 0.163000 0.443000
DOCKED: USER    NEWDPF tran0 26.032322 -15.138537 -1.724570
DOCKED: USER    NEWDPF quaternion0 0.642845 0.295079 0.385394 0.592579
DOCKED: USER    NEWDPF axisangle0 0.798058 0.366324 0.478446 107.319556
DOCKED: USER    NEWDPF quat0 0.798058 0.366324 0.478446 107.319556
DOCKED: USER    NEWDPF dihe0 -177.03 2.42 -168.32 -100.03 29.39 151.27 -5.34 -74.02 -139.84 
DOCKED: USER  keepresnum = 1 
DOCKED: USER  
DOCKED: REMARK  Name = 
DOCKED: REMARK  9 active torsions:
DOCKED: REMARK  status: ('A' for Active; 'I' for Inactive)
DOCKED: REMARK    1  A    between atoms: O_1  and  N_2
DOCKED: REMARK    2  A    between atoms: C_3  and  C_4
DOCKED: REMARK    3  A    between atoms: C_4  and  C_5
DOCKED: REMARK    4  A    between atoms: C_5  and  C_6
DOCKED: REMARK    5  A    between atoms: C_6  and  C_7
DOCKED: REMARK    6  A    between atoms: C_7  and  C_8
DOCKED: REMARK    7  A    between atoms: C_8  and  C_9
DOCKED: REMARK    8  A    between atoms: C_9  and  C_10
DOCKED: REMARK    9  A    between atoms: N_11  and  O_12
DOCKED: REMARK                            x       y       z     vdW  Elec       q    Type
DOCKED: REMARK                         _______ _______ _______ _____ _____    ______ ____
DOCKED: USER                              x       y       z     vdW  Elec       q    Type
DOCKED: USER                           _______ _______ _______ _____ _____    ______ ____
DOCKED: ROOT
DOCKED: ATOM      1  C   UNL     1      25.747 -15.994  -2.028 -0.53 -0.00    +0.000 C 
DOCKED: ENDROOT
DOCKED: BRANCH   1   2
DOCKED: ATOM      2  C   UNL     1      26.126 -15.796  -0.555 -0.39 -0.00    +0.000 C 
DOCKED: BRANCH   2   3
DOCKED: ATOM      3  C   UNL     1      27.196 -14.711  -0.404 -0.30 -0.00    +0.000 C 
DOCKED: BRANCH   3   5
DOCKED: ATOM      4  N   UNL     1      27.639 -14.548   2.092 -0.28 -0.00    +0.000 N 
DOCKED: ATOM      5  C   UNL     1      28.054 -14.984   0.795 -0.25 -0.00    +0.000 C 
DOCKED: ATOM      6  O   UNL     1      29.163 -15.564   0.651 -0.17 -0.00    +0.000 OA
DOCKED: ATOM      7  H   UNL     1      26.788 -14.063   2.195 -0.03 -0.00    +0.000 HD
DOCKED: BRANCH   4   8
DOCKED: ATOM      8  O   UNL     1      28.407 -14.794   3.180 -0.37 -0.00    +0.000 OA
DOCKED: ATOM      9  H   UNL     1      29.227 -15.234   2.903 -1.94 -0.00    +0.000 HD
DOCKED: ENDBRANCH   4   8
DOCKED: ENDBRANCH   3   5
DOCKED: ENDBRANCH   2   3
DOCKED: ENDBRANCH   1   2
DOCKED: BRANCH   1  10
DOCKED: ATOM     10  C   UNL     1      24.753 -17.153  -2.191 -0.58 -0.00    +0.000 C 
DOCKED: BRANCH  10  11
DOCKED: ATOM     11  C   UNL     1      23.562 -17.069  -1.218 -0.62 -0.00    +0.000 C 
DOCKED: BRANCH  11  12
DOCKED: ATOM     12  C   UNL     1      22.984 -18.437  -0.817 -0.83 -0.00    +0.000 C 
DOCKED: BRANCH  12  13
DOCKED: ATOM     13  C   UNL     1      21.501 -18.527  -1.039 -0.79 -0.00    +0.000 C 
DOCKED: ATOM     14  N   UNL     1      20.919 -19.714  -1.587 -0.75 -0.00    +0.000 N 
DOCKED: ATOM     15  O   UNL     1      20.767 -17.540  -0.764 -2.10 -0.00    +0.000 OA
DOCKED: ATOM     16  H   UNL     1      21.497 -20.476  -1.824 -0.40 -0.00    +0.000 HD
DOCKED: BRANCH  14  17
DOCKED: ATOM     17  O   UNL     1      19.582 -19.798  -1.784 -1.66 -0.00    +0.000 OA
DOCKED: ATOM     18  H   UNL     1      19.166 -18.957  -1.538 -0.54 -0.00    +0.000 HD
DOCKED: ENDBRANCH  14  17
DOCKED: ENDBRANCH  12  13
DOCKED: ENDBRANCH  11  12
DOCKED: ENDBRANCH  10  11
DOCKED: ENDBRANCH   1  10
DOCKED: TORSDOF 9
DOCKED: TER
DOCKED: ENDMDL
________________________________________________________________________________


	BEGINNING GENETIC ALGORITHM DOCKING 88 of 100
Run: 88 Seed: 140254136 1745882080 [ Run 88 of 100 GA/GALS ]
Beginning LAMARCKIAN GENETIC ALGORITHM (LGA), with a maximum of 2500000 energy evaluations.

Final-Value: -13.944


	FINAL GENETIC ALGORITHM DOCKED STATE
	_______________________________________________


Detailed state:  trans 23.621 -17.178 -1.742 quatxyzw -0.085255 -0.897060 0.153597 -0.405490 center 0.359 0.163 0.443 ntor 9 171.0753 179.3328 55.5021 18.4607 69.0582 11.2895 95.7785 25.8830 36.0825
State:	 23.621 -17.178  -1.742  -0.093 -0.981  0.168 -132.156    171.08  179.33   55.50   18.46   69.06   11.29   95.78   25.88   36.08

DOCKED: MODEL       88
DOCKED: USER    Run = 88
DOCKED: USER    DPF = ligand_dock.biased.dpf
DOCKED: USER  
DOCKED: USER    Estimated Free Energy of Binding    =  -10.14 kcal/mol  [=(1)+(2)+(3)-(4)]
DOCKED: USER    Estimated Inhibition Constant, Ki   =   36.78 nM (nanomolar)  [Temperature = 298.15 K]
DOCKED: USER    
DOCKED: USER    (1) Final Intermolecular Energy     =  -12.83 kcal/mol
DOCKED: USER        vdW + Hbond + desolv Energy     =  -12.83 kcal/mol
DOCKED: USER        Electrostatic Energy            =   +0.00 kcal/mol
DOCKED: USER    (2) Final Total Internal Energy     =   -1.12 kcal/mol
DOCKED: USER    (3) Torsional Free Energy           =   +2.68 kcal/mol
DOCKED: USER    (4) Unbound System's Energy  [=(2)] =   -1.12 kcal/mol
DOCKED: USER    
DOCKED: USER    
DOCKED: USER    NEWDPF move ligand.pdbqt
DOCKED: USER    NEWDPF about 0.359000 0.163000 0.443000
DOCKED: USER    NEWDPF tran0 23.620873 -17.177516 -1.741972
DOCKED: USER    NEWDPF quaternion0 -0.085255 -0.897060 0.153597 -0.405490
DOCKED: USER    NEWDPF axisangle0 -0.093267 -0.981360 0.168031 -132.156337
DOCKED: USER    NEWDPF quat0 -0.093267 -0.981360 0.168031 -132.156337
DOCKED: USER    NEWDPF dihe0 171.08 179.33 55.50 18.46 69.06 11.29 95.78 25.88 36.08 
DOCKED: USER  keepresnum = 1 
DOCKED: USER  
DOCKED: REMARK  Name = 
DOCKED: REMARK  9 active torsions:
DOCKED: REMARK  status: ('A' for Active; 'I' for Inactive)
DOCKED: REMARK    1  A    between atoms: O_1  and  N_2
DOCKED: REMARK    2  A    between atoms: C_3  and  C_4
DOCKED: REMARK    3  A    between atoms: C_4  and  C_5
DOCKED: REMARK    4  A    between atoms: C_5  and  C_6
DOCKED: REMARK    5  A    between atoms: C_6  and  C_7
DOCKED: REMARK    6  A    between atoms: C_7  and  C_8
DOCKED: REMARK    7  A    between atoms: C_8  and  C_9
DOCKED: REMARK    8  A    between atoms: C_9  and  C_10
DOCKED: REMARK    9  A    between atoms: N_11  and  O_12
DOCKED: REMARK                            x       y       z     vdW  Elec       q    Type
DOCKED: REMARK                         _______ _______ _______ _____ _____    ______ ____
DOCKED: USER                              x       y       z     vdW  Elec       q    Type
DOCKED: USER                           _______ _______ _______ _____ _____    ______ ____
DOCKED: ROOT
DOCKED: ATOM      1  C   UNL     1      24.515 -17.062  -1.437 -0.68 -0.00    +0.000 C 
DOCKED: ENDROOT
DOCKED: BRANCH   1   2
DOCKED: ATOM      2  C   UNL     1      23.373 -17.181  -0.420 -0.62 -0.00    +0.000 C 
DOCKED: BRANCH   2   3
DOCKED: ATOM      3  C   UNL     1      22.821 -18.609  -0.378 -0.83 -0.00    +0.000 C 
DOCKED: BRANCH   3   5
DOCKED: ATOM      4  N   UNL     1      21.045 -19.734  -1.803 -0.66 -0.00    +0.000 N 
DOCKED: ATOM      5  C   UNL     1      21.438 -18.654  -0.953 -0.83 -0.00    +0.000 C 
DOCKED: ATOM      6  O   UNL     1      20.632 -17.714  -0.716 -2.25 -0.00    +0.000 OA
DOCKED: ATOM      7  H   UNL     1      21.689 -20.448  -2.014 -0.47 -0.00    +0.000 HD
DOCKED: BRANCH   4   8
DOCKED: ATOM      8  O   UNL     1      19.795 -19.783  -2.322 -1.68 -0.00    +0.000 OA
DOCKED: ATOM      9  H   UNL     1      19.248 -19.094  -1.912 -0.46 -0.00    +0.000 HD
DOCKED: ENDBRANCH   4   8
DOCKED: ENDBRANCH   3   5
DOCKED: ENDBRANCH   2   3
DOCKED: ENDBRANCH   1   2
DOCKED: BRANCH   1  10
DOCKED: ATOM     10  C   UNL     1      25.848 -17.518  -0.827 -0.63 -0.00    +0.000 C 
DOCKED: BRANCH  10  11
DOCKED: ATOM     11  C   UNL     1      27.015 -16.566  -1.145 -0.45 -0.00    +0.000 C 
DOCKED: BRANCH  11  12
DOCKED: ATOM     12  C   UNL     1      27.145 -16.212  -2.636 -0.33 -0.00    +0.000 C 
DOCKED: BRANCH  12  13
DOCKED: ATOM     13  C   UNL     1      26.411 -14.952  -2.998 -0.43 -0.00    +0.000 C 
DOCKED: ATOM     14  N   UNL     1      25.153 -15.015  -3.677 -0.52 -0.00    +0.000 N 
DOCKED: ATOM     15  O   UNL     1      26.919 -13.831  -2.726 -0.25 -0.00    +0.000 OA
DOCKED: ATOM     16  H   UNL     1      24.768 -15.891  -3.911 -0.04 -0.00    +0.000 HD
DOCKED: BRANCH  14  17
DOCKED: ATOM     17  O   UNL     1      24.487 -13.881  -4.000 -1.09 -0.00    +0.000 OA
DOCKED: ATOM     18  H   UNL     1      23.665 -14.110  -4.462 -0.63 -0.00    +0.000 HD
DOCKED: ENDBRANCH  14  17
DOCKED: ENDBRANCH  12  13
DOCKED: ENDBRANCH  11  12
DOCKED: ENDBRANCH  10  11
DOCKED: ENDBRANCH   1  10
DOCKED: TORSDOF 9
DOCKED: TER
DOCKED: ENDMDL
________________________________________________________________________________


	BEGINNING GENETIC ALGORITHM DOCKING 89 of 100
Run: 89 Seed: 1124724724 1046484034 [ Run 89 of 100 GA/GALS ]
Beginning LAMARCKIAN GENETIC ALGORITHM (LGA), with a maximum of 2500000 energy evaluations.

Final-Value: -13.322


	FINAL GENETIC ALGORITHM DOCKED STATE
	_______________________________________________


Detailed state:  trans 25.321 -16.521 -3.056 quatxyzw -0.878268 -0.464416 -0.068732 0.090769 center 0.359 0.163 0.443 ntor 9 -177.9974 6.4699 96.2744 -53.7677 -91.0047 -159.2696 -34.2358 -0.6710 11.5381
State:	 25.321 -16.521  -3.056  -0.882 -0.466 -0.069 169.584   -178.00    6.47   96.27  -53.77  -91.00 -159.27  -34.24   -0.67   11.54

DOCKED: MODEL       89
DOCKED: USER    Run = 89
DOCKED: USER    DPF = ligand_dock.biased.dpf
DOCKED: USER  
DOCKED: USER    Estimated Free Energy of Binding    =   -9.14 kcal/mol  [=(1)+(2)+(3)-(4)]
DOCKED: USER    Estimated Inhibition Constant, Ki   =  200.11 nM (nanomolar)  [Temperature = 298.15 K]
DOCKED: USER    
DOCKED: USER    (1) Final Intermolecular Energy     =  -11.82 kcal/mol
DOCKED: USER        vdW + Hbond + desolv Energy     =  -11.82 kcal/mol
DOCKED: USER        Electrostatic Energy            =   +0.00 kcal/mol
DOCKED: USER    (2) Final Total Internal Energy     =   -1.50 kcal/mol
DOCKED: USER    (3) Torsional Free Energy           =   +2.68 kcal/mol
DOCKED: USER    (4) Unbound System's Energy  [=(2)] =   -1.50 kcal/mol
DOCKED: USER    
DOCKED: USER    
DOCKED: USER    NEWDPF move ligand.pdbqt
DOCKED: USER    NEWDPF about 0.359000 0.163000 0.443000
DOCKED: USER    NEWDPF tran0 25.321393 -16.520781 -3.056044
DOCKED: USER    NEWDPF quaternion0 -0.878268 -0.464416 -0.068732 0.090769
DOCKED: USER    NEWDPF axisangle0 -0.881909 -0.466341 -0.069017 169.584355
DOCKED: USER    NEWDPF quat0 -0.881909 -0.466341 -0.069017 169.584355
DOCKED: USER    NEWDPF dihe0 -178.00 6.47 96.27 -53.77 -91.00 -159.27 -34.24 -0.67 11.54 
DOCKED: USER  keepresnum = 1 
DOCKED: USER  
DOCKED: REMARK  Name = 
DOCKED: REMARK  9 active torsions:
DOCKED: REMARK  status: ('A' for Active; 'I' for Inactive)
DOCKED: REMARK    1  A    between atoms: O_1  and  N_2
DOCKED: REMARK    2  A    between atoms: C_3  and  C_4
DOCKED: REMARK    3  A    between atoms: C_4  and  C_5
DOCKED: REMARK    4  A    between atoms: C_5  and  C_6
DOCKED: REMARK    5  A    between atoms: C_6  and  C_7
DOCKED: REMARK    6  A    between atoms: C_7  and  C_8
DOCKED: REMARK    7  A    between atoms: C_8  and  C_9
DOCKED: REMARK    8  A    between atoms: C_9  and  C_10
DOCKED: REMARK    9  A    between atoms: N_11  and  O_12
DOCKED: REMARK                            x       y       z     vdW  Elec       q    Type
DOCKED: REMARK                         _______ _______ _______ _____ _____    ______ ____
DOCKED: USER                              x       y       z     vdW  Elec       q    Type
DOCKED: USER                           _______ _______ _______ _____ _____    ______ ____
DOCKED: ROOT
DOCKED: ATOM      1  C   UNL     1      24.972 -16.734  -2.197 -0.58 -0.00    +0.000 C 
DOCKED: ENDROOT
DOCKED: BRANCH   1   2
DOCKED: ATOM      2  C   UNL     1      25.425 -15.301  -2.499 -0.49 -0.00    +0.000 C 
DOCKED: BRANCH   2   3
DOCKED: ATOM      3  C   UNL     1      26.904 -15.264  -2.896 -0.38 -0.00    +0.000 C 
DOCKED: BRANCH   3   5
DOCKED: ATOM      4  N   UNL     1      28.354 -15.437  -4.974 -0.35 -0.00    +0.000 N 
DOCKED: ATOM      5  C   UNL     1      27.055 -15.442  -4.377 -0.44 -0.00    +0.000 C 
DOCKED: ATOM      6  O   UNL     1      26.029 -15.555  -5.100 -1.05 -0.00    +0.000 OA
DOCKED: ATOM      7  H   UNL     1      29.150 -15.312  -4.410 -0.00 -0.00    +0.000 HD
DOCKED: BRANCH   4   8
DOCKED: ATOM      8  O   UNL     1      28.498 -15.601  -6.311 -0.64 +0.00    +0.000 OA
DOCKED: ATOM      9  H   UNL     1      27.622 -15.678  -6.722 -0.04 +0.00    +0.000 HD
DOCKED: ENDBRANCH   4   8
DOCKED: ENDBRANCH   3   5
DOCKED: ENDBRANCH   2   3
DOCKED: ENDBRANCH   1   2
DOCKED: BRANCH   1  10
DOCKED: ATOM     10  C   UNL     1      23.903 -16.754  -1.095 -0.60 -0.00    +0.000 C 
DOCKED: BRANCH  10  11
DOCKED: ATOM     11  C   UNL     1      23.771 -18.126  -0.407 -0.79 -0.00    +0.000 C 
DOCKED: BRANCH  11  12
DOCKED: ATOM     12  C   UNL     1      23.010 -19.172  -1.240 -0.75 -0.00    +0.000 C 
DOCKED: BRANCH  12  13
DOCKED: ATOM     13  C   UNL     1      21.521 -18.972  -1.201 -0.78 -0.00    +0.000 C 
DOCKED: ATOM     14  N   UNL     1      20.647 -19.910  -1.836 -0.69 -0.00    +0.000 N 
DOCKED: ATOM     15  O   UNL     1      21.041 -17.957  -0.629 -2.07 -0.00    +0.000 OA
DOCKED: ATOM     16  H   UNL     1      21.024 -20.690  -2.304 -0.40 -0.00    +0.000 HD
DOCKED: BRANCH  14  17
DOCKED: ATOM     17  O   UNL     1      19.305 -19.734  -1.799 -1.25 -0.00    +0.000 OA
DOCKED: ATOM     18  H   UNL     1      19.103 -18.876  -1.394 -0.54 -0.00    +0.000 HD
DOCKED: ENDBRANCH  14  17
DOCKED: ENDBRANCH  12  13
DOCKED: ENDBRANCH  11  12
DOCKED: ENDBRANCH  10  11
DOCKED: ENDBRANCH   1  10
DOCKED: TORSDOF 9
DOCKED: TER
DOCKED: ENDMDL
________________________________________________________________________________


	BEGINNING GENETIC ALGORITHM DOCKING 90 of 100
Run: 90 Seed: 368133209 14086980 [ Run 90 of 100 GA/GALS ]
Beginning LAMARCKIAN GENETIC ALGORITHM (LGA), with a maximum of 2500000 energy evaluations.

Final-Value: -11.978


	FINAL GENETIC ALGORITHM DOCKED STATE
	_______________________________________________


Detailed state:  trans 28.267 -11.893 2.631 quatxyzw 0.463808 0.739074 -0.458972 -0.167321 center 0.359 0.163 0.443 ntor 9 179.5457 -178.7844 -155.2241 96.5633 169.4321 -147.8746 47.7180 177.9299 -102.3627
State:	 28.267 -11.893   2.631   0.470  0.750 -0.466 -160.736    179.55 -178.78 -155.22   96.56  169.43 -147.87   47.72  177.93 -102.36

DOCKED: MODEL       90
DOCKED: USER    Run = 90
DOCKED: USER    DPF = ligand_dock.biased.dpf
DOCKED: USER  
DOCKED: USER    Estimated Free Energy of Binding    =   -5.18 kcal/mol  [=(1)+(2)+(3)-(4)]
DOCKED: USER    Estimated Inhibition Constant, Ki   =  159.01 uM (micromolar)  [Temperature = 298.15 K]
DOCKED: USER    
DOCKED: USER    (1) Final Intermolecular Energy     =   -7.87 kcal/mol
DOCKED: USER        vdW + Hbond + desolv Energy     =   -7.87 kcal/mol
DOCKED: USER        Electrostatic Energy            =   +0.00 kcal/mol
DOCKED: USER    (2) Final Total Internal Energy     =   -4.11 kcal/mol
DOCKED: USER    (3) Torsional Free Energy           =   +2.68 kcal/mol
DOCKED: USER    (4) Unbound System's Energy  [=(2)] =   -4.11 kcal/mol
DOCKED: USER    
DOCKED: USER    
DOCKED: USER    NEWDPF move ligand.pdbqt
DOCKED: USER    NEWDPF about 0.359000 0.163000 0.443000
DOCKED: USER    NEWDPF tran0 28.266638 -11.892940 2.630689
DOCKED: USER    NEWDPF quaternion0 0.463808 0.739074 -0.458972 -0.167321
DOCKED: USER    NEWDPF axisangle0 0.470440 0.749642 -0.465535 -160.735784
DOCKED: USER    NEWDPF quat0 0.470440 0.749642 -0.465535 -160.735784
DOCKED: USER    NEWDPF dihe0 179.55 -178.78 -155.22 96.56 169.43 -147.87 47.72 177.93 -102.36 
DOCKED: USER  keepresnum = 1 
DOCKED: USER  
DOCKED: REMARK  Name = 
DOCKED: REMARK  9 active torsions:
DOCKED: REMARK  status: ('A' for Active; 'I' for Inactive)
DOCKED: REMARK    1  A    between atoms: O_1  and  N_2
DOCKED: REMARK    2  A    between atoms: C_3  and  C_4
DOCKED: REMARK    3  A    between atoms: C_4  and  C_5
DOCKED: REMARK    4  A    between atoms: C_5  and  C_6
DOCKED: REMARK    5  A    between atoms: C_6  and  C_7
DOCKED: REMARK    6  A    between atoms: C_7  and  C_8
DOCKED: REMARK    7  A    between atoms: C_8  and  C_9
DOCKED: REMARK    8  A    between atoms: C_9  and  C_10
DOCKED: REMARK    9  A    between atoms: N_11  and  O_12
DOCKED: REMARK                            x       y       z     vdW  Elec       q    Type
DOCKED: REMARK                         _______ _______ _______ _____ _____    ______ ____
DOCKED: USER                              x       y       z     vdW  Elec       q    Type
DOCKED: USER                           _______ _______ _______ _____ _____    ______ ____
DOCKED: ROOT
DOCKED: ATOM      1  C   UNL     1      28.625 -11.330   3.309 -0.18 +0.00    +0.000 C 
DOCKED: ENDROOT
DOCKED: BRANCH   1   2
DOCKED: ATOM      2  C   UNL     1      27.430 -10.851   2.475 -0.27 +0.00    +0.000 C 
DOCKED: BRANCH   2   3
DOCKED: ATOM      3  C   UNL     1      26.670 -12.037   1.873 -0.36 +0.00    +0.000 C 
DOCKED: BRANCH   3   5
DOCKED: ATOM      4  N   UNL     1      28.636 -13.539   1.300 -0.16 -0.00    +0.000 N 
DOCKED: ATOM      5  C   UNL     1      27.446 -13.306   2.058 -0.32 -0.00    +0.000 C 
DOCKED: ATOM      6  O   UNL     1      27.024 -14.186   2.856 -0.36 -0.00    +0.000 OA
DOCKED: ATOM      7  H   UNL     1      28.942 -12.865   0.652 +0.00 -0.00    +0.000 HD
DOCKED: BRANCH   4   8
DOCKED: ATOM      8  O   UNL     1      29.344 -14.682   1.465 -0.20 -0.00    +0.000 OA
DOCKED: ATOM      9  H   UNL     1      28.915 -15.233   2.140 -1.78 -0.00    +0.000 HD
DOCKED: ENDBRANCH   4   8
DOCKED: ENDBRANCH   3   5
DOCKED: ENDBRANCH   2   3
DOCKED: ENDBRANCH   1   2
DOCKED: BRANCH   1  10
DOCKED: ATOM     10  C   UNL     1      28.646 -10.648   4.685 -0.25 +0.00    +0.000 C 
DOCKED: BRANCH  10  11
DOCKED: ATOM     11  C   UNL     1      27.791 -11.381   5.735 -0.36 +0.00    +0.000 C 
DOCKED: BRANCH  11  12
DOCKED: ATOM     12  C   UNL     1      28.608 -12.235   6.721 -0.41 -0.00    +0.000 C 
DOCKED: BRANCH  12  13
DOCKED: ATOM     13  C   UNL     1      29.281 -13.402   6.056 -0.41 -0.00    +0.000 C 
DOCKED: ATOM     14  N   UNL     1      28.753 -13.950   4.845 -0.44 -0.00    +0.000 N 
DOCKED: ATOM     15  O   UNL     1      30.303 -13.918   6.584 -0.36 -0.00    +0.000 OA
DOCKED: ATOM     16  H   UNL     1      27.941 -13.562   4.447 -0.02 -0.00    +0.000 HD
DOCKED: BRANCH  14  17
DOCKED: ATOM     17  O   UNL     1      29.361 -15.000   4.242 -0.48 -0.00    +0.000 OA
DOCKED: ATOM     18  H   UNL     1      28.882 -15.226   3.429 -1.51 -0.00    +0.000 HD
DOCKED: ENDBRANCH  14  17
DOCKED: ENDBRANCH  12  13
DOCKED: ENDBRANCH  11  12
DOCKED: ENDBRANCH  10  11
DOCKED: ENDBRANCH   1  10
DOCKED: TORSDOF 9
DOCKED: TER
DOCKED: ENDMDL
________________________________________________________________________________


	BEGINNING GENETIC ALGORITHM DOCKING 91 of 100
Run: 91 Seed: 1755480250 472105941 [ Run 91 of 100 GA/GALS ]
Beginning LAMARCKIAN GENETIC ALGORITHM (LGA), with a maximum of 2500000 energy evaluations.

Final-Value: -13.989


	FINAL GENETIC ALGORITHM DOCKED STATE
	_______________________________________________


Detailed state:  trans 26.804 -16.866 -0.698 quatxyzw -0.116521 -0.372092 -0.150026 0.908550 center 0.359 0.163 0.443 ntor 9 -179.7085 6.0322 35.4156 -84.1331 115.2171 138.2261 -81.6592 -45.3839 1.4512
State:	 26.804 -16.866  -0.698  -0.279 -0.891 -0.359 49.389   -179.71    6.03   35.42  -84.13  115.22  138.23  -81.66  -45.38    1.45

DOCKED: MODEL       91
DOCKED: USER    Run = 91
DOCKED: USER    DPF = ligand_dock.biased.dpf
DOCKED: USER  
DOCKED: USER    Estimated Free Energy of Binding    =   -9.68 kcal/mol  [=(1)+(2)+(3)-(4)]
DOCKED: USER    Estimated Inhibition Constant, Ki   =   80.46 nM (nanomolar)  [Temperature = 298.15 K]
DOCKED: USER    
DOCKED: USER    (1) Final Intermolecular Energy     =  -12.36 kcal/mol
DOCKED: USER        vdW + Hbond + desolv Energy     =  -12.36 kcal/mol
DOCKED: USER        Electrostatic Energy            =   +0.00 kcal/mol
DOCKED: USER    (2) Final Total Internal Energy     =   -1.63 kcal/mol
DOCKED: USER    (3) Torsional Free Energy           =   +2.68 kcal/mol
DOCKED: USER    (4) Unbound System's Energy  [=(2)] =   -1.63 kcal/mol
DOCKED: USER    
DOCKED: USER    
DOCKED: USER    NEWDPF move ligand.pdbqt
DOCKED: USER    NEWDPF about 0.359000 0.163000 0.443000
DOCKED: USER    NEWDPF tran0 26.804431 -16.866176 -0.698107
DOCKED: USER    NEWDPF quaternion0 -0.116521 -0.372092 -0.150026 0.908550
DOCKED: USER    NEWDPF axisangle0 -0.278907 -0.890648 -0.359106 49.388623
DOCKED: USER    NEWDPF quat0 -0.278907 -0.890648 -0.359106 49.388623
DOCKED: USER    NEWDPF dihe0 -179.71 6.03 35.42 -84.13 115.22 138.23 -81.66 -45.38 1.45 
DOCKED: USER  keepresnum = 1 
DOCKED: USER  
DOCKED: REMARK  Name = 
DOCKED: REMARK  9 active torsions:
DOCKED: REMARK  status: ('A' for Active; 'I' for Inactive)
DOCKED: REMARK    1  A    between atoms: O_1  and  N_2
DOCKED: REMARK    2  A    between atoms: C_3  and  C_4
DOCKED: REMARK    3  A    between atoms: C_4  and  C_5
DOCKED: REMARK    4  A    between atoms: C_5  and  C_6
DOCKED: REMARK    5  A    between atoms: C_6  and  C_7
DOCKED: REMARK    6  A    between atoms: C_7  and  C_8
DOCKED: REMARK    7  A    between atoms: C_8  and  C_9
DOCKED: REMARK    8  A    between atoms: C_9  and  C_10
DOCKED: REMARK    9  A    between atoms: N_11  and  O_12
DOCKED: REMARK                            x       y       z     vdW  Elec       q    Type
DOCKED: REMARK                         _______ _______ _______ _____ _____    ______ ____
DOCKED: USER                              x       y       z     vdW  Elec       q    Type
DOCKED: USER                           _______ _______ _______ _____ _____    ______ ____
DOCKED: ROOT
DOCKED: ATOM      1  C   UNL     1      25.936 -16.873  -1.088 -0.57 -0.00    +0.000 C 
DOCKED: ENDROOT
DOCKED: BRANCH   1   2
DOCKED: ATOM      2  C   UNL     1      27.176 -16.843  -1.991 -0.32 -0.00    +0.000 C 
DOCKED: BRANCH   2   3
DOCKED: ATOM      3  C   UNL     1      27.361 -15.461  -2.625 -0.33 -0.00    +0.000 C 
DOCKED: BRANCH   3   5
DOCKED: ATOM      4  N   UNL     1      25.378 -14.020  -3.293 -0.41 -0.00    +0.000 N 
DOCKED: ATOM      5  C   UNL     1      26.219 -15.149  -3.545 -0.52 -0.00    +0.000 C 
DOCKED: ATOM      6  O   UNL     1      25.977 -15.909  -4.522 -0.77 -0.00    +0.000 OA
DOCKED: ATOM      7  H   UNL     1      25.549 -13.450  -2.509 -0.00 -0.00    +0.000 HD
DOCKED: BRANCH   4   8
DOCKED: ATOM      8  O   UNL     1      24.348 -13.730  -4.123 -1.14 -0.00    +0.000 OA
DOCKED: ATOM      9  H   UNL     1      24.314 -14.387  -4.837 -0.46 -0.00    +0.000 HD
DOCKED: ENDBRANCH   4   8
DOCKED: ENDBRANCH   3   5
DOCKED: ENDBRANCH   2   3
DOCKED: ENDBRANCH   1   2
DOCKED: BRANCH   1  10
DOCKED: ATOM     10  C   UNL     1      24.741 -17.508  -1.813 -0.67 -0.00    +0.000 C 
DOCKED: BRANCH  10  11
DOCKED: ATOM     11  C   UNL     1      23.413 -17.338  -1.052 -0.72 -0.00    +0.000 C 
DOCKED: BRANCH  11  12
DOCKED: ATOM     12  C   UNL     1      22.723 -18.666  -0.693 -0.84 -0.00    +0.000 C 
DOCKED: BRANCH  12  13
DOCKED: ATOM     13  C   UNL     1      21.232 -18.607  -0.861 -0.83 -0.00    +0.000 C 
DOCKED: ATOM     14  N   UNL     1      20.483 -19.800  -1.116 -0.81 -0.00    +0.000 N 
DOCKED: ATOM     15  O   UNL     1      20.639 -17.496  -0.803 -2.10 +0.00    +0.000 OA
DOCKED: ATOM     16  H   UNL     1      20.950 -20.664  -1.185 -0.14 -0.00    +0.000 HD
DOCKED: BRANCH  14  17
DOCKED: ATOM     17  O   UNL     1      19.137 -19.749  -1.263 -1.15 -0.00    +0.000 OA
DOCKED: ATOM     18  H   UNL     1      18.847 -18.824  -1.263 -0.58 -0.00    +0.000 HD
DOCKED: ENDBRANCH  14  17
DOCKED: ENDBRANCH  12  13
DOCKED: ENDBRANCH  11  12
DOCKED: ENDBRANCH  10  11
DOCKED: ENDBRANCH   1  10
DOCKED: TORSDOF 9
DOCKED: TER
DOCKED: ENDMDL
________________________________________________________________________________


	BEGINNING GENETIC ALGORITHM DOCKING 92 of 100
Run: 92 Seed: 1798637078 884762122 [ Run 92 of 100 GA/GALS ]
Beginning LAMARCKIAN GENETIC ALGORITHM (LGA), with a maximum of 2500000 energy evaluations.

Final-Value: -14.072


	FINAL GENETIC ALGORITHM DOCKED STATE
	_______________________________________________


Detailed state:  trans 25.317 -19.112 -1.223 quatxyzw -0.072358 -0.698414 0.675774 0.224302 center 0.359 0.163 0.443 ntor 9 -168.3567 -8.7576 -72.0513 -10.7779 -10.1930 -11.9918 179.4300 -88.6247 43.7151
State:	 25.317 -19.112  -1.223  -0.074 -0.717  0.693 154.076   -168.36   -8.76  -72.05  -10.78  -10.19  -11.99  179.43  -88.62   43.72

DOCKED: MODEL       92
DOCKED: USER    Run = 92
DOCKED: USER    DPF = ligand_dock.biased.dpf
DOCKED: USER  
DOCKED: USER    Estimated Free Energy of Binding    =   -9.86 kcal/mol  [=(1)+(2)+(3)-(4)]
DOCKED: USER    Estimated Inhibition Constant, Ki   =   59.00 nM (nanomolar)  [Temperature = 298.15 K]
DOCKED: USER    
DOCKED: USER    (1) Final Intermolecular Energy     =  -12.55 kcal/mol
DOCKED: USER        vdW + Hbond + desolv Energy     =  -12.55 kcal/mol
DOCKED: USER        Electrostatic Energy            =   +0.00 kcal/mol
DOCKED: USER    (2) Final Total Internal Energy     =   -1.53 kcal/mol
DOCKED: USER    (3) Torsional Free Energy           =   +2.68 kcal/mol
DOCKED: USER    (4) Unbound System's Energy  [=(2)] =   -1.53 kcal/mol
DOCKED: USER    
DOCKED: USER    
DOCKED: USER    NEWDPF move ligand.pdbqt
DOCKED: USER    NEWDPF about 0.359000 0.163000 0.443000
DOCKED: USER    NEWDPF tran0 25.317041 -19.112087 -1.223449
DOCKED: USER    NEWDPF quaternion0 -0.072358 -0.698414 0.675774 0.224302
DOCKED: USER    NEWDPF axisangle0 -0.074250 -0.716675 0.693443 154.076307
DOCKED: USER    NEWDPF quat0 -0.074250 -0.716675 0.693443 154.076307
DOCKED: USER    NEWDPF dihe0 -168.36 -8.76 -72.05 -10.78 -10.19 -11.99 179.43 -88.62 43.72 
DOCKED: USER  keepresnum = 1 
DOCKED: USER  
DOCKED: REMARK  Name = 
DOCKED: REMARK  9 active torsions:
DOCKED: REMARK  status: ('A' for Active; 'I' for Inactive)
DOCKED: REMARK    1  A    between atoms: O_1  and  N_2
DOCKED: REMARK    2  A    between atoms: C_3  and  C_4
DOCKED: REMARK    3  A    between atoms: C_4  and  C_5
DOCKED: REMARK    4  A    between atoms: C_5  and  C_6
DOCKED: REMARK    5  A    between atoms: C_6  and  C_7
DOCKED: REMARK    6  A    between atoms: C_7  and  C_8
DOCKED: REMARK    7  A    between atoms: C_8  and  C_9
DOCKED: REMARK    8  A    between atoms: C_9  and  C_10
DOCKED: REMARK    9  A    between atoms: N_11  and  O_12
DOCKED: REMARK                            x       y       z     vdW  Elec       q    Type
DOCKED: REMARK                         _______ _______ _______ _____ _____    ______ ____
DOCKED: USER                              x       y       z     vdW  Elec       q    Type
DOCKED: USER                           _______ _______ _______ _____ _____    ______ ____
DOCKED: ROOT
DOCKED: ATOM      1  C   UNL     1      25.441 -18.174  -1.122 -0.55 -0.00    +0.000 C 
DOCKED: ENDROOT
DOCKED: BRANCH   1   2
DOCKED: ATOM      2  C   UNL     1      24.023 -18.745  -1.255 -0.69 -0.00    +0.000 C 
DOCKED: BRANCH   2   3
DOCKED: ATOM      3  C   UNL     1      22.994 -17.820  -0.598 -0.80 -0.00    +0.000 C 
DOCKED: BRANCH   3   5
DOCKED: ATOM      4  N   UNL     1      21.377 -19.524  -1.563 -0.65 -0.00    +0.000 N 
DOCKED: ATOM      5  C   UNL     1      21.602 -18.256  -0.940 -0.76 -0.00    +0.000 C 
DOCKED: ATOM      6  O   UNL     1      20.631 -17.486  -0.713 -2.08 +0.00    +0.000 OA
DOCKED: ATOM      7  H   UNL     1      22.141 -20.107  -1.772 -0.46 -0.00    +0.000 HD
DOCKED: BRANCH   4   8
DOCKED: ATOM      8  O   UNL     1      20.121 -19.926  -1.871 -1.82 -0.00    +0.000 OA
DOCKED: ATOM      9  H   UNL     1      19.510 -19.178  -1.777 -0.30 -0.00    +0.000 HD
DOCKED: ENDBRANCH   4   8
DOCKED: ENDBRANCH   3   5
DOCKED: ENDBRANCH   2   3
DOCKED: ENDBRANCH   1   2
DOCKED: BRANCH   1  10
DOCKED: ATOM     10  C   UNL     1      25.430 -16.843  -0.356 -0.43 -0.00    +0.000 C 
DOCKED: BRANCH  10  11
DOCKED: ATOM     11  C   UNL     1      26.148 -15.708  -1.108 -0.45 -0.00    +0.000 C 
DOCKED: BRANCH  11  12
DOCKED: ATOM     12  C   UNL     1      26.483 -14.490  -0.229 -0.32 -0.00    +0.000 C 
DOCKED: BRANCH  12  13
DOCKED: ATOM     13  C   UNL     1      27.555 -14.782   0.782 -0.29 -0.00    +0.000 C 
DOCKED: ATOM     14  N   UNL     1      27.384 -14.401   2.151 -0.28 -0.00    +0.000 N 
DOCKED: ATOM     15  O   UNL     1      28.623 -15.342   0.417 -0.26 -0.00    +0.000 OA
DOCKED: ATOM     16  H   UNL     1      26.559 -13.942   2.431 -0.02 -0.00    +0.000 HD
DOCKED: BRANCH  14  17
DOCKED: ATOM     17  O   UNL     1      28.347 -14.667   3.065 -0.37 -0.00    +0.000 OA
DOCKED: ATOM     18  H   UNL     1      29.022 -15.238   2.665 -2.00 -0.00    +0.000 HD
DOCKED: ENDBRANCH  14  17
DOCKED: ENDBRANCH  12  13
DOCKED: ENDBRANCH  11  12
DOCKED: ENDBRANCH  10  11
DOCKED: ENDBRANCH   1  10
DOCKED: TORSDOF 9
DOCKED: TER
DOCKED: ENDMDL
________________________________________________________________________________


	BEGINNING GENETIC ALGORITHM DOCKING 93 of 100
Run: 93 Seed: 901588230 85646401 [ Run 93 of 100 GA/GALS ]
Beginning LAMARCKIAN GENETIC ALGORITHM (LGA), with a maximum of 2500000 energy evaluations.

Final-Value: -13.615


	FINAL GENETIC ALGORITHM DOCKED STATE
	_______________________________________________


Detailed state:  trans 23.963 -17.824 -0.040 quatxyzw -0.107748 -0.148183 0.982977 0.013738 center 0.359 0.163 0.443 ntor 9 178.6909 -3.2381 11.0033 -172.2165 49.1937 -96.1863 -9.2448 -111.8097 -74.2541
State:	 23.963 -17.824  -0.040  -0.108 -0.148  0.983 178.426    178.69   -3.24   11.00 -172.22   49.19  -96.19   -9.24 -111.81  -74.25

DOCKED: MODEL       93
DOCKED: USER    Run = 93
DOCKED: USER    DPF = ligand_dock.biased.dpf
DOCKED: USER  
DOCKED: USER    Estimated Free Energy of Binding    =   -9.47 kcal/mol  [=(1)+(2)+(3)-(4)]
DOCKED: USER    Estimated Inhibition Constant, Ki   =  113.48 nM (nanomolar)  [Temperature = 298.15 K]
DOCKED: USER    
DOCKED: USER    (1) Final Intermolecular Energy     =  -12.16 kcal/mol
DOCKED: USER        vdW + Hbond + desolv Energy     =  -12.16 kcal/mol
DOCKED: USER        Electrostatic Energy            =   +0.00 kcal/mol
DOCKED: USER    (2) Final Total Internal Energy     =   -1.46 kcal/mol
DOCKED: USER    (3) Torsional Free Energy           =   +2.68 kcal/mol
DOCKED: USER    (4) Unbound System's Energy  [=(2)] =   -1.46 kcal/mol
DOCKED: USER    
DOCKED: USER    
DOCKED: USER    NEWDPF move ligand.pdbqt
DOCKED: USER    NEWDPF about 0.359000 0.163000 0.443000
DOCKED: USER    NEWDPF tran0 23.963412 -17.823748 -0.039919
DOCKED: USER    NEWDPF quaternion0 -0.107748 -0.148183 0.982977 0.013738
DOCKED: USER    NEWDPF axisangle0 -0.107758 -0.148197 0.983070 178.425721
DOCKED: USER    NEWDPF quat0 -0.107758 -0.148197 0.983070 178.425721
DOCKED: USER    NEWDPF dihe0 178.69 -3.24 11.00 -172.22 49.19 -96.19 -9.24 -111.81 -74.25 
DOCKED: USER  keepresnum = 1 
DOCKED: USER  
DOCKED: REMARK  Name = 
DOCKED: REMARK  9 active torsions:
DOCKED: REMARK  status: ('A' for Active; 'I' for Inactive)
DOCKED: REMARK    1  A    between atoms: O_1  and  N_2
DOCKED: REMARK    2  A    between atoms: C_3  and  C_4
DOCKED: REMARK    3  A    between atoms: C_4  and  C_5
DOCKED: REMARK    4  A    between atoms: C_5  and  C_6
DOCKED: REMARK    5  A    between atoms: C_6  and  C_7
DOCKED: REMARK    6  A    between atoms: C_7  and  C_8
DOCKED: REMARK    7  A    between atoms: C_8  and  C_9
DOCKED: REMARK    8  A    between atoms: C_9  and  C_10
DOCKED: REMARK    9  A    between atoms: N_11  and  O_12
DOCKED: REMARK                            x       y       z     vdW  Elec       q    Type
DOCKED: REMARK                         _______ _______ _______ _____ _____    ______ ____
DOCKED: USER                              x       y       z     vdW  Elec       q    Type
DOCKED: USER                           _______ _______ _______ _____ _____    ______ ____
DOCKED: ROOT
DOCKED: ATOM      1  C   UNL     1      24.483 -17.592  -0.803 -0.73 -0.00    +0.000 C 
DOCKED: ENDROOT
DOCKED: BRANCH   1   2
DOCKED: ATOM      2  C   UNL     1      23.005 -17.185  -0.736 -0.71 -0.00    +0.000 C 
DOCKED: BRANCH   2   3
DOCKED: ATOM      3  C   UNL     1      22.177 -18.243   0.001 -0.80 -0.00    +0.000 C 
DOCKED: BRANCH   3   5
DOCKED: ATOM      4  N   UNL     1      20.984 -19.734  -1.674 -0.71 -0.00    +0.000 N 
DOCKED: ATOM      5  C   UNL     1      20.960 -18.605  -0.796 -0.83 -0.00    +0.000 C 
DOCKED: ATOM      6  O   UNL     1      19.927 -17.888  -0.720 -1.90 -0.00    +0.000 OA
DOCKED: ATOM      7  H   UNL     1      21.805 -20.270  -1.757 -0.43 -0.00    +0.000 HD
DOCKED: BRANCH   4   8
DOCKED: ATOM      8  O   UNL     1      19.887 -20.070  -2.394 -1.73 -0.00    +0.000 OA
DOCKED: ATOM      9  H   UNL     1      19.164 -19.458  -2.183 -0.48 -0.00    +0.000 HD
DOCKED: ENDBRANCH   4   8
DOCKED: ENDBRANCH   3   5
DOCKED: ENDBRANCH   2   3
DOCKED: ENDBRANCH   1   2
DOCKED: BRANCH   1  10
DOCKED: ATOM     10  C   UNL     1      25.276 -16.640  -1.710 -0.61 -0.00    +0.000 C 
DOCKED: BRANCH  10  11
DOCKED: ATOM     11  C   UNL     1      26.332 -15.819  -0.948 -0.44 -0.00    +0.000 C 
DOCKED: BRANCH  11  12
DOCKED: ATOM     12  C   UNL     1      27.263 -14.999  -1.858 -0.29 -0.00    +0.000 C 
DOCKED: BRANCH  12  13
DOCKED: ATOM     13  C   UNL     1      27.191 -15.427  -3.296 -0.37 -0.00    +0.000 C 
DOCKED: ATOM     14  N   UNL     1      25.991 -15.237  -4.051 -0.54 -0.00    +0.000 N 
DOCKED: ATOM     15  O   UNL     1      28.187 -15.982  -3.834 -0.35 -0.00    +0.000 OA
DOCKED: ATOM     16  H   UNL     1      25.205 -14.825  -3.623 -0.04 -0.00    +0.000 HD
DOCKED: BRANCH  14  17
DOCKED: ATOM     17  O   UNL     1      25.926 -15.618  -5.349 -1.12 +0.00    +0.000 OA
DOCKED: ATOM     18  H   UNL     1      26.791 -15.956  -5.630 -0.06 +0.00    +0.000 HD
DOCKED: ENDBRANCH  14  17
DOCKED: ENDBRANCH  12  13
DOCKED: ENDBRANCH  11  12
DOCKED: ENDBRANCH  10  11
DOCKED: ENDBRANCH   1  10
DOCKED: TORSDOF 9
DOCKED: TER
DOCKED: ENDMDL
________________________________________________________________________________


	BEGINNING GENETIC ALGORITHM DOCKING 94 of 100
Run: 94 Seed: 1232727292 1885824457 [ Run 94 of 100 GA/GALS ]
Beginning LAMARCKIAN GENETIC ALGORITHM (LGA), with a maximum of 2500000 energy evaluations.

Final-Value: -13.807


	FINAL GENETIC ALGORITHM DOCKED STATE
	_______________________________________________


Detailed state:  trans 24.557 -15.445 -1.538 quatxyzw 0.605703 0.224590 -0.172675 0.743550 center 0.359 0.163 0.443 ntor 9 169.0872 62.2494 -177.0641 -178.6444 170.1456 86.4722 -45.2230 28.7521 -44.2133
State:	 24.557 -15.445  -1.538   0.906  0.336 -0.258 83.931    169.09   62.25 -177.06 -178.64  170.15   86.47  -45.22   28.75  -44.21

DOCKED: MODEL       94
DOCKED: USER    Run = 94
DOCKED: USER    DPF = ligand_dock.biased.dpf
DOCKED: USER  
DOCKED: USER    Estimated Free Energy of Binding    =   -9.89 kcal/mol  [=(1)+(2)+(3)-(4)]
DOCKED: USER    Estimated Inhibition Constant, Ki   =   56.29 nM (nanomolar)  [Temperature = 298.15 K]
DOCKED: USER    
DOCKED: USER    (1) Final Intermolecular Energy     =  -12.57 kcal/mol
DOCKED: USER        vdW + Hbond + desolv Energy     =  -12.57 kcal/mol
DOCKED: USER        Electrostatic Energy            =   +0.00 kcal/mol
DOCKED: USER    (2) Final Total Internal Energy     =   -1.23 kcal/mol
DOCKED: USER    (3) Torsional Free Energy           =   +2.68 kcal/mol
DOCKED: USER    (4) Unbound System's Energy  [=(2)] =   -1.23 kcal/mol
DOCKED: USER    
DOCKED: USER    
DOCKED: USER    NEWDPF move ligand.pdbqt
DOCKED: USER    NEWDPF about 0.359000 0.163000 0.443000
DOCKED: USER    NEWDPF tran0 24.556922 -15.445189 -1.537787
DOCKED: USER    NEWDPF quaternion0 0.605703 0.224590 -0.172675 0.743550
DOCKED: USER    NEWDPF axisangle0 0.905819 0.335870 -0.258233 83.930593
DOCKED: USER    NEWDPF quat0 0.905819 0.335870 -0.258233 83.930593
DOCKED: USER    NEWDPF dihe0 169.09 62.25 -177.06 -178.64 170.15 86.47 -45.22 28.75 -44.21 
DOCKED: USER  keepresnum = 1 
DOCKED: USER  
DOCKED: REMARK  Name = 
DOCKED: REMARK  9 active torsions:
DOCKED: REMARK  status: ('A' for Active; 'I' for Inactive)
DOCKED: REMARK    1  A    between atoms: O_1  and  N_2
DOCKED: REMARK    2  A    between atoms: C_3  and  C_4
DOCKED: REMARK    3  A    between atoms: C_4  and  C_5
DOCKED: REMARK    4  A    between atoms: C_5  and  C_6
DOCKED: REMARK    5  A    between atoms: C_6  and  C_7
DOCKED: REMARK    6  A    between atoms: C_7  and  C_8
DOCKED: REMARK    7  A    between atoms: C_8  and  C_9
DOCKED: REMARK    8  A    between atoms: C_9  and  C_10
DOCKED: REMARK    9  A    between atoms: N_11  and  O_12
DOCKED: REMARK                            x       y       z     vdW  Elec       q    Type
DOCKED: REMARK                         _______ _______ _______ _____ _____    ______ ____
DOCKED: USER                              x       y       z     vdW  Elec       q    Type
DOCKED: USER                           _______ _______ _______ _____ _____    ______ ____
DOCKED: ROOT
DOCKED: ATOM      1  C   UNL     1      24.753 -16.351  -1.756 -0.58 -0.00    +0.000 C 
DOCKED: ENDROOT
DOCKED: BRANCH   1   2
DOCKED: ATOM      2  C   UNL     1      25.811 -15.491  -1.051 -0.44 -0.00    +0.000 C 
DOCKED: BRANCH   2   3
DOCKED: ATOM      3  C   UNL     1      26.360 -14.415  -1.993 -0.33 -0.00    +0.000 C 
DOCKED: BRANCH   3   5
DOCKED: ATOM      4  N   UNL     1      26.687 -15.403  -4.310 -0.48 -0.00    +0.000 N 
DOCKED: ATOM      5  C   UNL     1      25.885 -14.652  -3.395 -0.51 -0.00    +0.000 C 
DOCKED: ATOM      6  O   UNL     1      24.792 -14.154  -3.778 -1.01 -0.00    +0.000 OA
DOCKED: ATOM      7  H   UNL     1      27.556 -15.760  -4.018 -0.02 -0.00    +0.000 HD
DOCKED: BRANCH   4   8
DOCKED: ATOM      8  O   UNL     1      26.262 -15.625  -5.577 -1.20 +0.00    +0.000 OA
DOCKED: ATOM      9  H   UNL     1      25.330 -15.364  -5.655 -0.05 -0.00    +0.000 HD
DOCKED: ENDBRANCH   4   8
DOCKED: ENDBRANCH   3   5
DOCKED: ENDBRANCH   2   3
DOCKED: ENDBRANCH   1   2
DOCKED: BRANCH   1  10
DOCKED: ATOM     10  C   UNL     1      24.964 -17.841  -1.453 -0.66 -0.00    +0.000 C 
DOCKED: BRANCH  10  11
DOCKED: ATOM     11  C   UNL     1      23.644 -18.625  -1.333 -0.78 -0.00    +0.000 C 
DOCKED: BRANCH  11  12
DOCKED: ATOM     12  C   UNL     1      22.588 -17.941  -0.447 -0.82 -0.00    +0.000 C 
DOCKED: BRANCH  12  13
DOCKED: ATOM     13  C   UNL     1      21.229 -18.568  -0.577 -0.81 -0.00    +0.000 C 
DOCKED: ATOM     14  N   UNL     1      21.033 -19.948  -0.253 -0.67 -0.00    +0.000 N 
DOCKED: ATOM     15  O   UNL     1      20.261 -17.880  -0.999 -2.18 -0.00    +0.000 OA
DOCKED: ATOM     16  H   UNL     1      21.795 -20.490   0.054 -0.58 -0.00    +0.000 HD
DOCKED: BRANCH  14  17
DOCKED: ATOM     17  O   UNL     1      19.808 -20.514  -0.365 -0.86 -0.00    +0.000 OA
DOCKED: ATOM     18  H   UNL     1      19.520 -20.480  -1.291 -0.59 -0.00    +0.000 HD
DOCKED: ENDBRANCH  14  17
DOCKED: ENDBRANCH  12  13
DOCKED: ENDBRANCH  11  12
DOCKED: ENDBRANCH  10  11
DOCKED: ENDBRANCH   1  10
DOCKED: TORSDOF 9
DOCKED: TER
DOCKED: ENDMDL
________________________________________________________________________________


	BEGINNING GENETIC ALGORITHM DOCKING 95 of 100
Run: 95 Seed: 1091627321 789781358 [ Run 95 of 100 GA/GALS ]
Beginning LAMARCKIAN GENETIC ALGORITHM (LGA), with a maximum of 2500000 energy evaluations.

Final-Value: -13.222


	FINAL GENETIC ALGORITHM DOCKED STATE
	_______________________________________________


Detailed state:  trans 23.449 -18.510 -1.909 quatxyzw 0.507198 -0.704875 0.342059 -0.359022 center 0.359 0.163 0.443 ntor 9 154.8305 -8.1195 -7.2396 -113.8389 -137.2636 17.8620 -71.6409 -62.7388 -86.4006
State:	 23.449 -18.510  -1.909   0.543 -0.755  0.366 -137.920    154.83   -8.12   -7.24 -113.84 -137.26   17.86  -71.64  -62.74  -86.40

DOCKED: MODEL       95
DOCKED: USER    Run = 95
DOCKED: USER    DPF = ligand_dock.biased.dpf
DOCKED: USER  
DOCKED: USER    Estimated Free Energy of Binding    =   -8.98 kcal/mol  [=(1)+(2)+(3)-(4)]
DOCKED: USER    Estimated Inhibition Constant, Ki   =  261.81 nM (nanomolar)  [Temperature = 298.15 K]
DOCKED: USER    
DOCKED: USER    (1) Final Intermolecular Energy     =  -11.66 kcal/mol
DOCKED: USER        vdW + Hbond + desolv Energy     =  -11.66 kcal/mol
DOCKED: USER        Electrostatic Energy            =   +0.00 kcal/mol
DOCKED: USER    (2) Final Total Internal Energy     =   -1.56 kcal/mol
DOCKED: USER    (3) Torsional Free Energy           =   +2.68 kcal/mol
DOCKED: USER    (4) Unbound System's Energy  [=(2)] =   -1.56 kcal/mol
DOCKED: USER    
DOCKED: USER    
DOCKED: USER    NEWDPF move ligand.pdbqt
DOCKED: USER    NEWDPF about 0.359000 0.163000 0.443000
DOCKED: USER    NEWDPF tran0 23.448514 -18.509682 -1.909270
DOCKED: USER    NEWDPF quaternion0 0.507198 -0.704875 0.342059 -0.359022
DOCKED: USER    NEWDPF axisangle0 0.543429 -0.755227 0.366494 -137.919723
DOCKED: USER    NEWDPF quat0 0.543429 -0.755227 0.366494 -137.919723
DOCKED: USER    NEWDPF dihe0 154.83 -8.12 -7.24 -113.84 -137.26 17.86 -71.64 -62.74 -86.40 
DOCKED: USER  keepresnum = 1 
DOCKED: USER  
DOCKED: REMARK  Name = 
DOCKED: REMARK  9 active torsions:
DOCKED: REMARK  status: ('A' for Active; 'I' for Inactive)
DOCKED: REMARK    1  A    between atoms: O_1  and  N_2
DOCKED: REMARK    2  A    between atoms: C_3  and  C_4
DOCKED: REMARK    3  A    between atoms: C_4  and  C_5
DOCKED: REMARK    4  A    between atoms: C_5  and  C_6
DOCKED: REMARK    5  A    between atoms: C_6  and  C_7
DOCKED: REMARK    6  A    between atoms: C_7  and  C_8
DOCKED: REMARK    7  A    between atoms: C_8  and  C_9
DOCKED: REMARK    8  A    between atoms: C_9  and  C_10
DOCKED: REMARK    9  A    between atoms: N_11  and  O_12
DOCKED: REMARK                            x       y       z     vdW  Elec       q    Type
DOCKED: REMARK                         _______ _______ _______ _____ _____    ______ ____
DOCKED: USER                              x       y       z     vdW  Elec       q    Type
DOCKED: USER                           _______ _______ _______ _____ _____    ______ ____
DOCKED: ROOT
DOCKED: ATOM      1  C   UNL     1      23.640 -17.591  -1.752 -0.47 -0.00    +0.000 C 
DOCKED: ENDROOT
DOCKED: BRANCH   1   2
DOCKED: ATOM      2  C   UNL     1      23.750 -18.598  -0.601 -0.80 -0.00    +0.000 C 
DOCKED: BRANCH   2   3
DOCKED: ATOM      3  C   UNL     1      22.470 -18.612   0.241 -0.65 -0.00    +0.000 C 
DOCKED: BRANCH   3   5
DOCKED: ATOM      4  N   UNL     1      20.843 -19.759  -1.335 -0.76 -0.00    +0.000 N 
DOCKED: ATOM      5  C   UNL     1      21.260 -18.579  -0.642 -0.84 -0.00    +0.000 C 
DOCKED: ATOM      6  O   UNL     1      20.633 -17.498  -0.805 -2.10 +0.00    +0.000 OA
DOCKED: ATOM      7  H   UNL     1      21.356 -20.592  -1.233 -0.14 -0.00    +0.000 HD
DOCKED: BRANCH   4   8
DOCKED: ATOM      8  O   UNL     1      19.747 -19.738  -2.132 -1.77 -0.00    +0.000 OA
DOCKED: ATOM      9  H   UNL     1      19.149 -19.032  -1.839 -0.55 -0.00    +0.000 HD
DOCKED: ENDBRANCH   4   8
DOCKED: ENDBRANCH   3   5
DOCKED: ENDBRANCH   2   3
DOCKED: ENDBRANCH   1   2
DOCKED: BRANCH   1  10
DOCKED: ATOM     10  C   UNL     1      24.553 -16.380  -1.515 -0.53 -0.00    +0.000 C 
DOCKED: BRANCH  10  11
DOCKED: ATOM     11  C   UNL     1      25.848 -16.427  -2.347 -0.52 -0.00    +0.000 C 
DOCKED: BRANCH  11  12
DOCKED: ATOM     12  C   UNL     1      27.104 -15.984  -1.576 -0.38 -0.00    +0.000 C 
DOCKED: BRANCH  12  13
DOCKED: ATOM     13  C   UNL     1      27.911 -17.145  -1.069 -0.40 -0.00    +0.000 C 
DOCKED: ATOM     14  N   UNL     1      29.297 -17.267  -1.406 -0.27 -0.00    +0.000 N 
DOCKED: ATOM     15  O   UNL     1      27.358 -18.031  -0.363 -0.56 -0.00    +0.000 OA
DOCKED: ATOM     16  H   UNL     1      29.722 -16.587  -1.978 -0.00 -0.00    +0.000 HD
DOCKED: BRANCH  14  17
DOCKED: ATOM     17  O   UNL     1      30.028 -18.310  -0.947 -0.29 -0.00    +0.000 OA
DOCKED: ATOM     18  H   UNL     1      29.504 -18.812  -0.303 -0.61 -0.00    +0.000 HD
DOCKED: ENDBRANCH  14  17
DOCKED: ENDBRANCH  12  13
DOCKED: ENDBRANCH  11  12
DOCKED: ENDBRANCH  10  11
DOCKED: ENDBRANCH   1  10
DOCKED: TORSDOF 9
DOCKED: TER
DOCKED: ENDMDL
________________________________________________________________________________


	BEGINNING GENETIC ALGORITHM DOCKING 96 of 100
Run: 96 Seed: 2005524482 1521192779 [ Run 96 of 100 GA/GALS ]
Beginning LAMARCKIAN GENETIC ALGORITHM (LGA), with a maximum of 2500000 energy evaluations.

Final-Value: -13.751


	FINAL GENETIC ALGORITHM DOCKED STATE
	_______________________________________________


Detailed state:  trans 24.998 -17.720 0.052 quatxyzw -0.084302 0.082145 -0.974112 -0.193008 center 0.359 0.163 0.443 ntor 9 -171.7815 -11.9656 74.5997 -10.8180 29.1318 178.1683 -78.2728 144.9870 -72.0783
State:	 24.998 -17.720   0.052  -0.086  0.084 -0.993 -157.743   -171.78  -11.97   74.60  -10.82   29.13  178.17  -78.27  144.99  -72.08

DOCKED: MODEL       96
DOCKED: USER    Run = 96
DOCKED: USER    DPF = ligand_dock.biased.dpf
DOCKED: USER  
DOCKED: USER    Estimated Free Energy of Binding    =   -9.57 kcal/mol  [=(1)+(2)+(3)-(4)]
DOCKED: USER    Estimated Inhibition Constant, Ki   =   96.76 nM (nanomolar)  [Temperature = 298.15 K]
DOCKED: USER    
DOCKED: USER    (1) Final Intermolecular Energy     =  -12.25 kcal/mol
DOCKED: USER        vdW + Hbond + desolv Energy     =  -12.25 kcal/mol
DOCKED: USER        Electrostatic Energy            =   +0.00 kcal/mol
DOCKED: USER    (2) Final Total Internal Energy     =   -1.50 kcal/mol
DOCKED: USER    (3) Torsional Free Energy           =   +2.68 kcal/mol
DOCKED: USER    (4) Unbound System's Energy  [=(2)] =   -1.50 kcal/mol
DOCKED: USER    
DOCKED: USER    
DOCKED: USER    NEWDPF move ligand.pdbqt
DOCKED: USER    NEWDPF about 0.359000 0.163000 0.443000
DOCKED: USER    NEWDPF tran0 24.998082 -17.720394 0.051850
DOCKED: USER    NEWDPF quaternion0 -0.084302 0.082145 -0.974112 -0.193008
DOCKED: USER    NEWDPF axisangle0 -0.085917 0.083720 -0.992779 -157.743255
DOCKED: USER    NEWDPF quat0 -0.085917 0.083720 -0.992779 -157.743255
DOCKED: USER    NEWDPF dihe0 -171.78 -11.97 74.60 -10.82 29.13 178.17 -78.27 144.99 -72.08 
DOCKED: USER  keepresnum = 1 
DOCKED: USER  
DOCKED: REMARK  Name = 
DOCKED: REMARK  9 active torsions:
DOCKED: REMARK  status: ('A' for Active; 'I' for Inactive)
DOCKED: REMARK    1  A    between atoms: O_1  and  N_2
DOCKED: REMARK    2  A    between atoms: C_3  and  C_4
DOCKED: REMARK    3  A    between atoms: C_4  and  C_5
DOCKED: REMARK    4  A    between atoms: C_5  and  C_6
DOCKED: REMARK    5  A    between atoms: C_6  and  C_7
DOCKED: REMARK    6  A    between atoms: C_7  and  C_8
DOCKED: REMARK    7  A    between atoms: C_8  and  C_9
DOCKED: REMARK    8  A    between atoms: C_9  and  C_10
DOCKED: REMARK    9  A    between atoms: N_11  and  O_12
DOCKED: REMARK                            x       y       z     vdW  Elec       q    Type
DOCKED: REMARK                         _______ _______ _______ _____ _____    ______ ____
DOCKED: USER                              x       y       z     vdW  Elec       q    Type
DOCKED: USER                           _______ _______ _______ _____ _____    ______ ____
DOCKED: ROOT
DOCKED: ATOM      1  C   UNL     1      25.145 -17.501  -0.862 -0.68 -0.00    +0.000 C 
DOCKED: ENDROOT
DOCKED: BRANCH   1   2
DOCKED: ATOM      2  C   UNL     1      23.712 -17.639  -0.334 -0.72 -0.00    +0.000 C 
DOCKED: BRANCH   2   3
DOCKED: ATOM      3  C   UNL     1      23.094 -18.972  -0.765 -0.82 -0.00    +0.000 C 
DOCKED: BRANCH   3   5
DOCKED: ATOM      4  N   UNL     1      20.874 -19.763  -1.715 -0.70 -0.00    +0.000 N 
DOCKED: ATOM      5  C   UNL     1      21.607 -18.841  -0.902 -0.85 -0.00    +0.000 C 
DOCKED: ATOM      6  O   UNL     1      21.007 -17.891  -0.331 -1.94 +0.00    +0.000 OA
DOCKED: ATOM      7  H   UNL     1      21.351 -20.482  -2.188 -0.49 -0.00    +0.000 HD
DOCKED: BRANCH   4   8
DOCKED: ATOM      8  O   UNL     1      19.530 -19.653  -1.839 -1.57 -0.00    +0.000 OA
DOCKED: ATOM      9  H   UNL     1      19.234 -18.827  -1.424 -0.47 -0.00    +0.000 HD
DOCKED: ENDBRANCH   4   8
DOCKED: ENDBRANCH   3   5
DOCKED: ENDBRANCH   2   3
DOCKED: ENDBRANCH   1   2
DOCKED: BRANCH   1  10
DOCKED: ATOM     10  C   UNL     1      25.198 -16.564  -2.078 -0.60 -0.00    +0.000 C 
DOCKED: BRANCH  10  11
DOCKED: ATOM     11  C   UNL     1      26.036 -15.297  -1.828 -0.44 -0.00    +0.000 C 
DOCKED: BRANCH  11  12
DOCKED: ATOM     12  C   UNL     1      27.546 -15.561  -1.694 -0.30 -0.00    +0.000 C 
DOCKED: BRANCH  12  13
DOCKED: ATOM     13  C   UNL     1      28.005 -15.584  -0.264 -0.29 -0.00    +0.000 C 
DOCKED: ATOM     14  N   UNL     1      29.164 -14.848   0.137 -0.16 -0.00    +0.000 N 
DOCKED: ATOM     15  O   UNL     1      27.379 -16.277   0.583 -0.39 -0.00    +0.000 OA
DOCKED: ATOM     16  H   UNL     1      29.666 -14.326  -0.530 +0.00 -0.00    +0.000 HD
DOCKED: BRANCH  14  17
DOCKED: ATOM     17  O   UNL     1      29.577 -14.863   1.427 -0.19 -0.00    +0.000 OA
DOCKED: ATOM     18  H   UNL     1      28.886 -15.257   1.982 -1.65 -0.00    +0.000 HD
DOCKED: ENDBRANCH  14  17
DOCKED: ENDBRANCH  12  13
DOCKED: ENDBRANCH  11  12
DOCKED: ENDBRANCH  10  11
DOCKED: ENDBRANCH   1  10
DOCKED: TORSDOF 9
DOCKED: TER
DOCKED: ENDMDL
________________________________________________________________________________


	BEGINNING GENETIC ALGORITHM DOCKING 97 of 100
Run: 97 Seed: 649308471 1070897681 [ Run 97 of 100 GA/GALS ]
Beginning LAMARCKIAN GENETIC ALGORITHM (LGA), with a maximum of 2500000 energy evaluations.

Final-Value: -14.082


	FINAL GENETIC ALGORITHM DOCKED STATE
	_______________________________________________


Detailed state:  trans 26.869 -17.032 -1.022 quatxyzw 0.669229 0.382567 0.610951 -0.180318 center 0.359 0.163 0.443 ntor 9 -178.9043 7.6092 65.5437 112.7086 19.4644 27.2821 -1.2058 -162.9875 81.3652
State:	 26.869 -17.032  -1.022   0.680  0.389  0.621 -159.223   -178.90    7.61   65.54  112.71   19.46   27.28   -1.21 -162.99   81.37

DOCKED: MODEL       97
DOCKED: USER    Run = 97
DOCKED: USER    DPF = ligand_dock.biased.dpf
DOCKED: USER  
DOCKED: USER    Estimated Free Energy of Binding    =   -9.92 kcal/mol  [=(1)+(2)+(3)-(4)]
DOCKED: USER    Estimated Inhibition Constant, Ki   =   53.36 nM (nanomolar)  [Temperature = 298.15 K]
DOCKED: USER    
DOCKED: USER    (1) Final Intermolecular Energy     =  -12.61 kcal/mol
DOCKED: USER        vdW + Hbond + desolv Energy     =  -12.61 kcal/mol
DOCKED: USER        Electrostatic Energy            =   +0.00 kcal/mol
DOCKED: USER    (2) Final Total Internal Energy     =   -1.48 kcal/mol
DOCKED: USER    (3) Torsional Free Energy           =   +2.68 kcal/mol
DOCKED: USER    (4) Unbound System's Energy  [=(2)] =   -1.48 kcal/mol
DOCKED: USER    
DOCKED: USER    
DOCKED: USER    NEWDPF move ligand.pdbqt
DOCKED: USER    NEWDPF about 0.359000 0.163000 0.443000
DOCKED: USER    NEWDPF tran0 26.868628 -17.031709 -1.021510
DOCKED: USER    NEWDPF quaternion0 0.669229 0.382567 0.610951 -0.180318
DOCKED: USER    NEWDPF axisangle0 0.680381 0.388943 0.621132 -159.223386
DOCKED: USER    NEWDPF quat0 0.680381 0.388943 0.621132 -159.223386
DOCKED: USER    NEWDPF dihe0 -178.90 7.61 65.54 112.71 19.46 27.28 -1.21 -162.99 81.37 
DOCKED: USER  keepresnum = 1 
DOCKED: USER  
DOCKED: REMARK  Name = 
DOCKED: REMARK  9 active torsions:
DOCKED: REMARK  status: ('A' for Active; 'I' for Inactive)
DOCKED: REMARK    1  A    between atoms: O_1  and  N_2
DOCKED: REMARK    2  A    between atoms: C_3  and  C_4
DOCKED: REMARK    3  A    between atoms: C_4  and  C_5
DOCKED: REMARK    4  A    between atoms: C_5  and  C_6
DOCKED: REMARK    5  A    between atoms: C_6  and  C_7
DOCKED: REMARK    6  A    between atoms: C_7  and  C_8
DOCKED: REMARK    7  A    between atoms: C_8  and  C_9
DOCKED: REMARK    8  A    between atoms: C_9  and  C_10
DOCKED: REMARK    9  A    between atoms: N_11  and  O_12
DOCKED: REMARK                            x       y       z     vdW  Elec       q    Type
DOCKED: REMARK                         _______ _______ _______ _____ _____    ______ ____
DOCKED: USER                              x       y       z     vdW  Elec       q    Type
DOCKED: USER                           _______ _______ _______ _____ _____    ______ ____
DOCKED: ROOT
DOCKED: ATOM      1  C   UNL     1      26.042 -17.501  -1.065 -0.60 -0.00    +0.000 C 
DOCKED: ENDROOT
DOCKED: BRANCH   1   2
DOCKED: ATOM      2  C   UNL     1      26.080 -16.079  -0.491 -0.40 -0.00    +0.000 C 
DOCKED: BRANCH   2   3
DOCKED: ATOM      3  C   UNL     1      27.463 -15.756   0.083 -0.34 -0.00    +0.000 C 
DOCKED: BRANCH   3   5
DOCKED: ATOM      4  N   UNL     1      28.277 -14.523   2.149 -0.26 -0.00    +0.000 N 
DOCKED: ATOM      5  C   UNL     1      27.378 -14.605   1.040 -0.26 -0.00    +0.000 C 
DOCKED: ATOM      6  O   UNL     1      26.484 -13.730   0.889 -0.37 -0.00    +0.000 OA
DOCKED: ATOM      7  H   UNL     1      28.951 -15.227   2.284 -1.89 -0.00    +0.000 HD
DOCKED: BRANCH   4   8
DOCKED: ATOM      8  O   UNL     1      28.209 -13.484   3.015 -0.32 -0.00    +0.000 OA
DOCKED: ATOM      9  H   UNL     1      27.485 -12.893   2.753 -0.01 -0.00    +0.000 HD
DOCKED: ENDBRANCH   4   8
DOCKED: ENDBRANCH   3   5
DOCKED: ENDBRANCH   2   3
DOCKED: ENDBRANCH   1   2
DOCKED: BRANCH   1  10
DOCKED: ATOM     10  C   UNL     1      24.655 -17.827  -1.638 -0.66 -0.00    +0.000 C 
DOCKED: BRANCH  10  11
DOCKED: ATOM     11  C   UNL     1      23.704 -18.451  -0.600 -0.81 -0.00    +0.000 C 
DOCKED: BRANCH  11  12
DOCKED: ATOM     12  C   UNL     1      22.411 -17.648  -0.376 -0.79 -0.00    +0.000 C 
DOCKED: BRANCH  12  13
DOCKED: ATOM     13  C   UNL     1      21.199 -18.332  -0.943 -0.73 -0.00    +0.000 C 
DOCKED: ATOM     14  N   UNL     1      21.340 -19.493  -1.767 -0.60 -0.00    +0.000 N 
DOCKED: ATOM     15  O   UNL     1      20.052 -17.864  -0.713 -2.02 -0.00    +0.000 OA
DOCKED: ATOM     16  H   UNL     1      22.239 -19.844  -1.966 -0.44 -0.00    +0.000 HD
DOCKED: BRANCH  14  17
DOCKED: ATOM     17  O   UNL     1      20.249 -20.113  -2.276 -1.80 -0.00    +0.000 OA
DOCKED: ATOM     18  H   UNL     1      19.460 -19.581  -2.091 -0.30 -0.00    +0.000 HD
DOCKED: ENDBRANCH  14  17
DOCKED: ENDBRANCH  12  13
DOCKED: ENDBRANCH  11  12
DOCKED: ENDBRANCH  10  11
DOCKED: ENDBRANCH   1  10
DOCKED: TORSDOF 9
DOCKED: TER
DOCKED: ENDMDL
________________________________________________________________________________


	BEGINNING GENETIC ALGORITHM DOCKING 98 of 100
Run: 98 Seed: 523519166 1890420186 [ Run 98 of 100 GA/GALS ]
Beginning LAMARCKIAN GENETIC ALGORITHM (LGA), with a maximum of 2500000 energy evaluations.

Final-Value: -13.401


	FINAL GENETIC ALGORITHM DOCKED STATE
	_______________________________________________


Detailed state:  trans 24.221 -18.492 -1.472 quatxyzw -0.267408 0.564873 -0.739875 0.248989 center 0.359 0.163 0.443 ntor 9 167.1642 -10.1037 60.9390 179.3558 89.1251 -57.1734 -6.9975 -159.3406 -93.2638
State:	 24.221 -18.492  -1.472  -0.276  0.583 -0.764 151.165    167.16  -10.10   60.94  179.36   89.13  -57.17   -7.00 -159.34  -93.26

DOCKED: MODEL       98
DOCKED: USER    Run = 98
DOCKED: USER    DPF = ligand_dock.biased.dpf
DOCKED: USER  
DOCKED: USER    Estimated Free Energy of Binding    =   -9.19 kcal/mol  [=(1)+(2)+(3)-(4)]
DOCKED: USER    Estimated Inhibition Constant, Ki   =  183.50 nM (nanomolar)  [Temperature = 298.15 K]
DOCKED: USER    
DOCKED: USER    (1) Final Intermolecular Energy     =  -11.87 kcal/mol
DOCKED: USER        vdW + Hbond + desolv Energy     =  -11.87 kcal/mol
DOCKED: USER        Electrostatic Energy            =   +0.00 kcal/mol
DOCKED: USER    (2) Final Total Internal Energy     =   -1.53 kcal/mol
DOCKED: USER    (3) Torsional Free Energy           =   +2.68 kcal/mol
DOCKED: USER    (4) Unbound System's Energy  [=(2)] =   -1.53 kcal/mol
DOCKED: USER    
DOCKED: USER    
DOCKED: USER    NEWDPF move ligand.pdbqt
DOCKED: USER    NEWDPF about 0.359000 0.163000 0.443000
DOCKED: USER    NEWDPF tran0 24.220636 -18.491878 -1.472154
DOCKED: USER    NEWDPF quaternion0 -0.267408 0.564873 -0.739875 0.248989
DOCKED: USER    NEWDPF axisangle0 -0.276104 0.583242 -0.763935 151.164599
DOCKED: USER    NEWDPF quat0 -0.276104 0.583242 -0.763935 151.164599
DOCKED: USER    NEWDPF dihe0 167.16 -10.10 60.94 179.36 89.13 -57.17 -7.00 -159.34 -93.26 
DOCKED: USER  keepresnum = 1 
DOCKED: USER  
DOCKED: REMARK  Name = 
DOCKED: REMARK  9 active torsions:
DOCKED: REMARK  status: ('A' for Active; 'I' for Inactive)
DOCKED: REMARK    1  A    between atoms: O_1  and  N_2
DOCKED: REMARK    2  A    between atoms: C_3  and  C_4
DOCKED: REMARK    3  A    between atoms: C_4  and  C_5
DOCKED: REMARK    4  A    between atoms: C_5  and  C_6
DOCKED: REMARK    5  A    between atoms: C_6  and  C_7
DOCKED: REMARK    6  A    between atoms: C_7  and  C_8
DOCKED: REMARK    7  A    between atoms: C_8  and  C_9
DOCKED: REMARK    8  A    between atoms: C_9  and  C_10
DOCKED: REMARK    9  A    between atoms: N_11  and  O_12
DOCKED: REMARK                            x       y       z     vdW  Elec       q    Type
DOCKED: REMARK                         _______ _______ _______ _____ _____    ______ ____
DOCKED: USER                              x       y       z     vdW  Elec       q    Type
DOCKED: USER                           _______ _______ _______ _____ _____    ______ ____
DOCKED: ROOT
DOCKED: ATOM      1  C   UNL     1      24.350 -17.661  -1.918 -0.60 -0.00    +0.000 C 
DOCKED: ENDROOT
DOCKED: BRANCH   1   2
DOCKED: ATOM      2  C   UNL     1      23.662 -17.691  -0.547 -0.76 -0.00    +0.000 C 
DOCKED: BRANCH   2   3
DOCKED: ATOM      3  C   UNL     1      22.866 -18.986  -0.360 -0.78 -0.00    +0.000 C 
DOCKED: BRANCH   3   5
DOCKED: ATOM      4  N   UNL     1      20.769 -19.890  -1.471 -0.68 -0.00    +0.000 N 
DOCKED: ATOM      5  C   UNL     1      21.456 -18.809  -0.836 -0.85 -0.00    +0.000 C 
DOCKED: ATOM      6  O   UNL     1      20.889 -17.690  -0.711 -2.16 -0.00    +0.000 OA
DOCKED: ATOM      7  H   UNL     1      21.227 -20.752  -1.598 -0.16 -0.00    +0.000 HD
DOCKED: BRANCH   4   8
DOCKED: ATOM      8  O   UNL     1      19.493 -19.738  -1.899 -1.61 -0.00    +0.000 OA
DOCKED: ATOM      9  H   UNL     1      19.122 -18.922  -1.527 -0.56 -0.00    +0.000 HD
DOCKED: ENDBRANCH   4   8
DOCKED: ENDBRANCH   3   5
DOCKED: ENDBRANCH   2   3
DOCKED: ENDBRANCH   1   2
DOCKED: BRANCH   1  10
DOCKED: ATOM     10  C   UNL     1      25.026 -16.305  -2.166 -0.56 -0.00    +0.000 C 
DOCKED: BRANCH  10  11
DOCKED: ATOM     11  C   UNL     1      26.521 -16.300  -1.801 -0.46 -0.00    +0.000 C 
DOCKED: BRANCH  11  12
DOCKED: ATOM     12  C   UNL     1      27.444 -15.858  -2.950 -0.33 -0.00    +0.000 C 
DOCKED: BRANCH  12  13
DOCKED: ATOM     13  C   UNL     1      26.741 -14.993  -3.958 -0.47 -0.00    +0.000 C 
DOCKED: ATOM     14  N   UNL     1      26.115 -13.771  -3.554 -0.36 -0.00    +0.000 N 
DOCKED: ATOM     15  O   UNL     1      26.680 -15.359  -5.162 -1.05 +0.00    +0.000 OA
DOCKED: ATOM     16  H   UNL     1      26.142 -13.498  -2.609 -0.01 -0.00    +0.000 HD
DOCKED: BRANCH  14  17
DOCKED: ATOM     17  O   UNL     1      25.484 -12.988  -4.462 -0.50 -0.00    +0.000 OA
DOCKED: ATOM     18  H   UNL     1      25.681 -13.308  -5.356 +0.04 -0.00    +0.000 HD
DOCKED: ENDBRANCH  14  17
DOCKED: ENDBRANCH  12  13
DOCKED: ENDBRANCH  11  12
DOCKED: ENDBRANCH  10  11
DOCKED: ENDBRANCH   1  10
DOCKED: TORSDOF 9
DOCKED: TER
DOCKED: ENDMDL
________________________________________________________________________________


	BEGINNING GENETIC ALGORITHM DOCKING 99 of 100
Run: 99 Seed: 841575358 2063045999 [ Run 99 of 100 GA/GALS ]
Beginning LAMARCKIAN GENETIC ALGORITHM (LGA), with a maximum of 2500000 energy evaluations.

Final-Value: -13.305


	FINAL GENETIC ALGORITHM DOCKED STATE
	_______________________________________________


Detailed state:  trans 24.369 -17.475 -0.357 quatxyzw -0.292898 -0.107623 0.906193 0.285382 center 0.359 0.163 0.443 ntor 9 -162.3522 1.0437 36.5581 54.9323 -28.8240 23.2115 -11.3325 -89.6976 132.4549
State:	 24.369 -17.475  -0.357  -0.306 -0.112  0.946 146.837   -162.35    1.04   36.56   54.93  -28.82   23.21  -11.33  -89.70  132.45

DOCKED: MODEL       99
DOCKED: USER    Run = 99
DOCKED: USER    DPF = ligand_dock.biased.dpf
DOCKED: USER  
DOCKED: USER    Estimated Free Energy of Binding    =   -9.15 kcal/mol  [=(1)+(2)+(3)-(4)]
DOCKED: USER    Estimated Inhibition Constant, Ki   =  196.23 nM (nanomolar)  [Temperature = 298.15 K]
DOCKED: USER    
DOCKED: USER    (1) Final Intermolecular Energy     =  -11.83 kcal/mol
DOCKED: USER        vdW + Hbond + desolv Energy     =  -11.83 kcal/mol
DOCKED: USER        Electrostatic Energy            =   +0.00 kcal/mol
DOCKED: USER    (2) Final Total Internal Energy     =   -1.47 kcal/mol
DOCKED: USER    (3) Torsional Free Energy           =   +2.68 kcal/mol
DOCKED: USER    (4) Unbound System's Energy  [=(2)] =   -1.47 kcal/mol
DOCKED: USER    
DOCKED: USER    
DOCKED: USER    NEWDPF move ligand.pdbqt
DOCKED: USER    NEWDPF about 0.359000 0.163000 0.443000
DOCKED: USER    NEWDPF tran0 24.369099 -17.475161 -0.356591
DOCKED: USER    NEWDPF quaternion0 -0.292898 -0.107623 0.906193 0.285382
DOCKED: USER    NEWDPF axisangle0 -0.305607 -0.112293 0.945513 146.836648
DOCKED: USER    NEWDPF quat0 -0.305607 -0.112293 0.945513 146.836648
DOCKED: USER    NEWDPF dihe0 -162.35 1.04 36.56 54.93 -28.82 23.21 -11.33 -89.70 132.45 
DOCKED: USER  keepresnum = 1 
DOCKED: USER  
DOCKED: REMARK  Name = 
DOCKED: REMARK  9 active torsions:
DOCKED: REMARK  status: ('A' for Active; 'I' for Inactive)
DOCKED: REMARK    1  A    between atoms: O_1  and  N_2
DOCKED: REMARK    2  A    between atoms: C_3  and  C_4
DOCKED: REMARK    3  A    between atoms: C_4  and  C_5
DOCKED: REMARK    4  A    between atoms: C_5  and  C_6
DOCKED: REMARK    5  A    between atoms: C_6  and  C_7
DOCKED: REMARK    6  A    between atoms: C_7  and  C_8
DOCKED: REMARK    7  A    between atoms: C_8  and  C_9
DOCKED: REMARK    8  A    between atoms: C_9  and  C_10
DOCKED: REMARK    9  A    between atoms: N_11  and  O_12
DOCKED: REMARK                            x       y       z     vdW  Elec       q    Type
DOCKED: REMARK                         _______ _______ _______ _____ _____    ______ ____
DOCKED: USER                              x       y       z     vdW  Elec       q    Type
DOCKED: USER                           _______ _______ _______ _____ _____    ______ ____
DOCKED: ROOT
DOCKED: ATOM      1  C   UNL     1      25.030 -17.022  -0.871 -0.64 -0.00    +0.000 C 
DOCKED: ENDROOT
DOCKED: BRANCH   1   2
DOCKED: ATOM      2  C   UNL     1      23.673 -17.359  -1.502 -0.62 -0.00    +0.000 C 
DOCKED: BRANCH   2   3
DOCKED: ATOM      3  C   UNL     1      23.155 -18.711  -1.001 -0.82 -0.00    +0.000 C 
DOCKED: BRANCH   3   5
DOCKED: ATOM      4  N   UNL     1      20.963 -19.707  -1.809 -0.69 -0.00    +0.000 N 
DOCKED: ATOM      5  C   UNL     1      21.656 -18.737  -1.020 -0.83 -0.00    +0.000 C 
DOCKED: ATOM      6  O   UNL     1      21.007 -17.875  -0.369 -1.96 -0.00    +0.000 OA
DOCKED: ATOM      7  H   UNL     1      21.473 -20.356  -2.344 -0.54 -0.00    +0.000 HD
DOCKED: BRANCH   4   8
DOCKED: ATOM      8  O   UNL     1      19.609 -19.740  -1.828 -1.73 -0.00    +0.000 OA
DOCKED: ATOM      9  H   UNL     1      19.261 -18.897  -1.494 -0.46 -0.00    +0.000 HD
DOCKED: ENDBRANCH   4   8
DOCKED: ENDBRANCH   3   5
DOCKED: ENDBRANCH   2   3
DOCKED: ENDBRANCH   1   2
DOCKED: BRANCH   1  10
DOCKED: ATOM     10  C   UNL     1      25.669 -15.805  -1.553 -0.51 -0.00    +0.000 C 
DOCKED: BRANCH  10  11
DOCKED: ATOM     11  C   UNL     1      25.454 -15.785  -3.078 -0.53 -0.00    +0.000 C 
DOCKED: BRANCH  11  12
DOCKED: ATOM     12  C   UNL     1      26.361 -14.791  -3.825 -0.50 -0.00    +0.000 C 
DOCKED: BRANCH  12  13
DOCKED: ATOM     13  C   UNL     1      27.486 -15.469  -4.554 -0.40 -0.00    +0.000 C 
DOCKED: ATOM     14  N   UNL     1      28.523 -16.136  -3.828 -0.27 -0.00    +0.000 N 
DOCKED: ATOM     15  O   UNL     1      27.531 -15.426  -5.813 -0.98 +0.00    +0.000 OA
DOCKED: ATOM     16  H   UNL     1      28.500 -16.148  -2.844 -0.01 -0.00    +0.000 HD
DOCKED: BRANCH  14  17
DOCKED: ATOM     17  O   UNL     1      29.536 -16.751  -4.484 -0.33 -0.00    +0.000 OA
DOCKED: ATOM     18  H   UNL     1      29.421 -16.633  -5.440 -0.03 -0.00    +0.000 HD
DOCKED: ENDBRANCH  14  17
DOCKED: ENDBRANCH  12  13
DOCKED: ENDBRANCH  11  12
DOCKED: ENDBRANCH  10  11
DOCKED: ENDBRANCH   1  10
DOCKED: TORSDOF 9
DOCKED: TER
DOCKED: ENDMDL
________________________________________________________________________________


	BEGINNING GENETIC ALGORITHM DOCKING 100 of 100
Run: 100 Seed: 1662471226 362506691 [ Run 100 of 100 GA/GALS ]
Beginning LAMARCKIAN GENETIC ALGORITHM (LGA), with a maximum of 2500000 energy evaluations.

Final-Value: -12.844


	FINAL GENETIC ALGORITHM DOCKED STATE
	_______________________________________________


Detailed state:  trans 24.912 -16.453 -2.188 quatxyzw 0.825553 0.228488 0.057644 0.512770 center 0.359 0.163 0.443 ntor 9 130.9104 13.8149 -47.3215 -90.8543 -0.3385 119.0673 -117.8117 -28.4694 -30.1527
State:	 24.912 -16.453  -2.188   0.962  0.266  0.067 118.303    130.91   13.81  -47.32  -90.85   -0.34  119.07 -117.81  -28.47  -30.15

DOCKED: MODEL      100
DOCKED: USER    Run = 100
DOCKED: USER    DPF = ligand_dock.biased.dpf
DOCKED: USER  
DOCKED: USER    Estimated Free Energy of Binding    =   -9.05 kcal/mol  [=(1)+(2)+(3)-(4)]
DOCKED: USER    Estimated Inhibition Constant, Ki   =  234.38 nM (nanomolar)  [Temperature = 298.15 K]
DOCKED: USER    
DOCKED: USER    (1) Final Intermolecular Energy     =  -11.73 kcal/mol
DOCKED: USER        vdW + Hbond + desolv Energy     =  -11.73 kcal/mol
DOCKED: USER        Electrostatic Energy            =   +0.00 kcal/mol
DOCKED: USER    (2) Final Total Internal Energy     =   -1.11 kcal/mol
DOCKED: USER    (3) Torsional Free Energy           =   +2.68 kcal/mol
DOCKED: USER    (4) Unbound System's Energy  [=(2)] =   -1.11 kcal/mol
DOCKED: USER    
DOCKED: USER    
DOCKED: USER    NEWDPF move ligand.pdbqt
DOCKED: USER    NEWDPF about 0.359000 0.163000 0.443000
DOCKED: USER    NEWDPF tran0 24.912288 -16.453217 -2.187789
DOCKED: USER    NEWDPF quaternion0 0.825553 0.228488 0.057644 0.512770
DOCKED: USER    NEWDPF axisangle0 0.961593 0.266140 0.067143 118.302956
DOCKED: USER    NEWDPF quat0 0.961593 0.266140 0.067143 118.302956
DOCKED: USER    NEWDPF dihe0 130.91 13.81 -47.32 -90.85 -0.34 119.07 -117.81 -28.47 -30.15 
DOCKED: USER  keepresnum = 1 
DOCKED: USER  
DOCKED: REMARK  Name = 
DOCKED: REMARK  9 active torsions:
DOCKED: REMARK  status: ('A' for Active; 'I' for Inactive)
DOCKED: REMARK    1  A    between atoms: O_1  and  N_2
DOCKED: REMARK    2  A    between atoms: C_3  and  C_4
DOCKED: REMARK    3  A    between atoms: C_4  and  C_5
DOCKED: REMARK    4  A    between atoms: C_5  and  C_6
DOCKED: REMARK    5  A    between atoms: C_6  and  C_7
DOCKED: REMARK    6  A    between atoms: C_7  and  C_8
DOCKED: REMARK    7  A    between atoms: C_8  and  C_9
DOCKED: REMARK    8  A    between atoms: C_9  and  C_10
DOCKED: REMARK    9  A    between atoms: N_11  and  O_12
DOCKED: REMARK                            x       y       z     vdW  Elec       q    Type
DOCKED: REMARK                         _______ _______ _______ _____ _____    ______ ____
DOCKED: USER                              x       y       z     vdW  Elec       q    Type
DOCKED: USER                           _______ _______ _______ _____ _____    ______ ____
DOCKED: ROOT
DOCKED: ATOM      1  C   UNL     1      24.745 -17.348  -1.909 -0.64 -0.00    +0.000 C 
DOCKED: ENDROOT
DOCKED: BRANCH   1   2
DOCKED: ATOM      2  C   UNL     1      25.766 -16.491  -1.148 -0.55 -0.00    +0.000 C 
DOCKED: BRANCH   2   3
DOCKED: ATOM      3  C   UNL     1      26.962 -17.335  -0.696 -0.52 -0.00    +0.000 C 
DOCKED: BRANCH   3   5
DOCKED: ATOM      4  N   UNL     1      27.502 -15.430   0.895 -0.26 -0.00    +0.000 N 
DOCKED: ATOM      5  C   UNL     1      27.953 -16.486   0.043 -0.26 -0.00    +0.000 C 
DOCKED: ATOM      6  O   UNL     1      29.187 -16.681  -0.120 -0.26 -0.00    +0.000 OA
DOCKED: ATOM      7  H   UNL     1      26.538 -15.258   0.992 +0.00 -0.00    +0.000 HD
DOCKED: BRANCH   4   8
DOCKED: ATOM      8  O   UNL     1      28.392 -14.662   1.569 -0.29 -0.00    +0.000 OA
DOCKED: ATOM      9  H   UNL     1      29.031 -15.233   2.024 -1.70 -0.00    +0.000 HD
DOCKED: ENDBRANCH   4   8
DOCKED: ENDBRANCH   3   5
DOCKED: ENDBRANCH   2   3
DOCKED: ENDBRANCH   1   2
DOCKED: BRANCH   1  10
DOCKED: ATOM     10  C   UNL     1      24.153 -18.435  -1.001 -0.78 -0.00    +0.000 C 
DOCKED: BRANCH  10  11
DOCKED: ATOM     11  C   UNL     1      22.799 -18.969  -1.504 -0.73 -0.00    +0.000 C 
DOCKED: BRANCH  11  12
DOCKED: ATOM     12  C   UNL     1      21.587 -18.447  -0.711 -0.86 -0.00    +0.000 C 
DOCKED: BRANCH  12  13
DOCKED: ATOM     13  C   UNL     1      20.373 -19.317  -0.870 -0.90 -0.00    +0.000 C 
DOCKED: ATOM     14  N   UNL     1      19.438 -19.460   0.204 -0.74 -0.00    +0.000 N 
DOCKED: ATOM     15  O   UNL     1      20.191 -19.946  -1.946 -1.82 -0.00    +0.000 OA
DOCKED: ATOM     16  H   UNL     1      19.594 -18.987   1.053 -0.26 -0.00    +0.000 HD
DOCKED: BRANCH  14  17
DOCKED: ATOM     17  O   UNL     1      18.340 -20.240   0.062 -0.82 -0.00    +0.000 OA
DOCKED: ATOM     18  H   UNL     1      18.440 -20.797  -0.726 -0.34 -0.00    +0.000 HD
DOCKED: ENDBRANCH  14  17
DOCKED: ENDBRANCH  12  13
DOCKED: ENDBRANCH  11  12
DOCKED: ENDBRANCH  10  11
DOCKED: ENDBRANCH   1  10
DOCKED: TORSDOF 9
DOCKED: TER
DOCKED: ENDMDL
________________________________________________________________________________

DPF>                           # do this many hybrid GA-LS runs

DPF> analysis                             # perform a ranked cluster analysis


		CLUSTER ANALYSIS OF CONFORMATIONS
		_________________________________

Number of conformations = 100

RMSD cluster analysis will be performed using the ligand atoms only (18 / 18 total atoms).

Outputting structurally similar clusters, ranked in order of increasing energy.


________________________________________________________________________________

Number of distinct conformational clusters found = 7,  out of 100 runs,
Using an rmsd-tolerance of 2.0 A


	CLUSTERING HISTOGRAM
	____________________

________________________________________________________________________________
     |           |     |           |     |                                    
Clus | Lowest    | Run | Mean      | Num | Histogram                          
-ter | Binding   |     | Binding   | in  |                                    
Rank | Energy    |     | Energy    | Clus|    5    10   15   20   25   30   35
_____|___________|_____|___________|_____|____:____|____:____|____:____|____:___
   1 |    -10.76 |  57 |     -9.42 |  57 |#########################################################
   2 |    -10.27 |  29 |     -9.57 |  32 |################################
   3 |     -9.29 |  67 |     -9.16 |   5 |#####
   4 |     -9.06 |  45 |     -9.04 |   2 |##
   5 |     -8.76 |  30 |     -8.76 |   1 |#
   6 |     -7.92 |  59 |     -7.92 |   1 |#
   7 |     -5.18 |  90 |     -5.14 |   2 |##
_____|___________|_____|___________|_____|______________________________________


Number of multi-member conformational clusters found = 5, out of 100 runs.

	RMSD TABLE
	__________

_____________________________________________________________________
     |      |      |           |         |                 |
Rank | Sub- | Run  | Binding   | Cluster | Reference       | Grep
     | Rank |      | Energy    | RMSD    | RMSD            | Pattern
_____|______|______|___________|_________|_________________|___________
   1      1     57      -10.76      0.00     26.10           RANKING
   1      2     21      -10.38      1.04     26.28           RANKING
   1      3     15      -10.15      0.67     25.91           RANKING
   1      4     88      -10.14      0.99     26.02           RANKING
   1      5     26      -10.11      1.56     26.59           RANKING
   1      6     28      -10.06      0.79     25.96           RANKING
   1      7     62      -10.04      1.33     26.33           RANKING
   1      8     33      -10.02      1.21     26.43           RANKING
   1      9     13       -9.96      1.23     26.33           RANKING
   1     10     84       -9.93      1.38     26.38           RANKING
   1     11     39       -9.93      1.69     26.52           RANKING
   1     12     46       -9.90      1.70     26.54           RANKING
   1     13     94       -9.89      1.45     26.26           RANKING
   1     14     81       -9.88      0.67     25.95           RANKING
   1     15     63       -9.84      1.41     26.54           RANKING
   1     16     86       -9.84      1.43     26.16           RANKING
   1     17      8       -9.80      1.63     26.13           RANKING
   1     18     37       -9.78      1.81     26.16           RANKING
   1     19     73       -9.73      1.74     26.63           RANKING
   1     20     56       -9.72      1.27     26.57           RANKING
   1     21      2       -9.72      1.36     26.18           RANKING
   1     22     64       -9.69      1.25     26.33           RANKING
   1     23     31       -9.68      1.51     26.16           RANKING
   1     24     91       -9.68      0.76     25.93           RANKING
   1     25     52       -9.67      1.89     26.71           RANKING
   1     26     24       -9.65      1.46     26.43           RANKING
   1     27     70       -9.63      1.25     26.38           RANKING
   1     28     79       -9.63      1.78     26.31           RANKING
   1     29     50       -9.55      1.63     26.54           RANKING
   1     30     42       -9.53      1.44     26.43           RANKING
   1     31     93       -9.47      1.22     26.36           RANKING
   1     32     78       -9.39      1.61     26.55           RANKING
   1     33     77       -9.38      1.44     25.81           RANKING
   1     34     16       -9.38      1.52     26.54           RANKING
   1     35     80       -9.32      1.53     25.96           RANKING
   1     36     10       -9.32      1.70     25.88           RANKING
   1     37     49       -9.30      1.48     26.22           RANKING
   1     38     58       -9.30      1.46     26.44           RANKING
   1     39     75       -9.20      1.33     25.57           RANKING
   1     40     27       -9.19      1.42     26.29           RANKING
   1     41     98       -9.19      0.94     26.11           RANKING
   1     42     82       -9.17      1.53     26.56           RANKING
   1     43     89       -9.14      1.97     26.79           RANKING
   1     44     44       -9.08      1.41     26.25           RANKING
   1     45     22       -8.89      1.44     26.05           RANKING
   1     46     38       -8.86      1.96     26.49           RANKING
   1     47     74       -8.82      0.99     26.08           RANKING
   1     48     85       -8.77      1.85     26.21           RANKING
   1     49      3       -8.75      1.36     26.34           RANKING
   1     50     65       -8.68      1.49     26.18           RANKING
   1     51     32       -8.65      1.49     26.04           RANKING
   1     52     25       -8.57      1.32     26.26           RANKING
   1     53     11       -8.51      1.81     26.32           RANKING
   1     54     66       -8.48      1.48     26.30           RANKING
   1     55     14       -8.14      1.37     26.11           RANKING
   1     56     40       -8.00      1.94     26.65           RANKING
   1     57     61       -7.59      1.83     26.51           RANKING
   2      1     29      -10.27      0.00     26.74           RANKING
   2      2     36      -10.23      1.17     26.37           RANKING
   2      3     83      -10.17      0.60     26.66           RANKING
   2      4      6      -10.04      0.62     26.68           RANKING
   2      5     54      -10.00      1.22     26.44           RANKING
   2      6      5       -9.98      0.52     26.65           RANKING
   2      7      4       -9.98      1.52     26.40           RANKING
   2      8     71       -9.95      1.06     26.58           RANKING
   2      9     97       -9.92      1.27     26.47           RANKING
   2     10     51       -9.92      1.23     26.57           RANKING
   2     11     69       -9.91      1.13     26.45           RANKING
   2     12     47       -9.90      1.32     26.48           RANKING
   2     13     72       -9.90      1.11     26.68           RANKING
   2     14     92       -9.86      1.27     26.57           RANKING
   2     15     17       -9.83      1.13     26.62           RANKING
   2     16     87       -9.83      1.06     26.56           RANKING
   2     17     48       -9.78      1.26     26.46           RANKING
   2     18     76       -9.75      1.05     26.41           RANKING
   2     19     23       -9.72      1.19     26.63           RANKING
   2     20     41       -9.57      1.19     26.46           RANKING
   2     21     96       -9.57      0.95     26.89           RANKING
   2     22     19       -9.39      1.15     26.70           RANKING
   2     23     68       -9.34      1.22     26.56           RANKING
   2     24     43       -9.12      1.71     26.95           RANKING
   2     25     60       -9.10      1.36     26.61           RANKING
   2     26    100       -9.05      1.69     26.67           RANKING
   2     27     95       -8.98      1.95     27.37           RANKING
   2     28     18       -8.93      1.36     26.43           RANKING
   2     29      7       -8.86      1.91     26.90           RANKING
   2     30     55       -8.80      1.34     27.17           RANKING
   2     31      9       -8.64      1.39     26.49           RANKING
   2     32      1       -8.05      1.79     26.69           RANKING
   3      1     67       -9.29      0.00     26.93           RANKING
   3      2     34       -9.26      0.81     26.93           RANKING
   3      3     35       -9.16      0.75     27.00           RANKING
   3      4     99       -9.15      0.87     27.07           RANKING
   3      5     12       -8.93      1.56     26.66           RANKING
   4      1     45       -9.06      0.00     27.63           RANKING
   4      2     20       -9.02      0.67     27.82           RANKING
   5      1     30       -8.76      0.00     24.20           RANKING
   6      1     59       -7.92      0.00     26.52           RANKING
   7      1     90       -5.18      0.00     27.47           RANKING
   7      2     53       -5.09      1.23     27.57           RANKING
_______________________________________________________________________



	INFORMATION ENTROPY ANALYSIS FOR THIS CLUSTERING
	________________________________________________


Information entropy for this clustering = 0.24  (rmstol = 2.00 Angstrom)

_______________________________________________________________________


	STATISTICAL MECHANICAL ANALYSIS
	_______________________________


Partition function, Q =   101.59            at Temperature, T = 298.15 K
Free energy,        A ~ -2737.82 kcal/mol   at Temperature, T = 298.15 K
Internal energy,    U =    -9.34 kcal/mol   at Temperature, T = 298.15 K
Entropy,            S =     9.15 kcal/mol/K at Temperature, T = 298.15 K

_______________________________________________________________________


	LOWEST ENERGY DOCKED CONFORMATION from EACH CLUSTER
	___________________________________________________



Keeping original residue number (specified in the input PDBQ file) for outputting.

MODEL       57
USER    Run = 57
USER    Cluster Rank = 1
USER    Number of conformations in this cluster = 57
USER  
USER    RMSD from reference structure       = 26.104 A
USER  
USER    Estimated Free Energy of Binding    =  -10.76 kcal/mol  [=(1)+(2)+(3)-(4)]
USER    Estimated Inhibition Constant, Ki   =   13.07 nM (nanomolar)  [Temperature = 298.15 K]
USER    
USER    (1) Final Intermolecular Energy     =  -13.44 kcal/mol
USER        vdW + Hbond + desolv Energy     =  -13.44 kcal/mol
USER        Electrostatic Energy            =   +0.00 kcal/mol
USER    (2) Final Total Internal Energy     =   -1.61 kcal/mol
USER    (3) Torsional Free Energy           =   +2.68 kcal/mol
USER    (4) Unbound System's Energy  [=(2)] =   -1.61 kcal/mol
USER    
USER    
USER  
USER    DPF = ligand_dock.biased.dpf
USER    NEWDPF move	ligand.pdbqt
USER    NEWDPF about	0.359000 0.163000 0.443000
USER    NEWDPF tran0	26.997064 -17.171834 -0.852834
USER    NEWDPF axisangle0	0.646351 0.472870 0.598853 -103.306971
USER    NEWDPF quaternion0	0.506916 0.370859 0.469664 -0.620416
USER    NEWDPF dihe0	180.00 -12.47 -70.86 165.05 -87.55 31.98 119.79 165.60 -2.85 
USER  
USER                              x       y       z    vdW   Elec        q     RMS 
ATOM      1  C   UNL     1      26.063 -17.248  -1.017 -0.59 -0.00    +0.000    26.104
ATOM      2  C   UNL     1      26.805 -15.970  -1.425 -0.41 -0.00    +0.000    26.104
ATOM      3  C   UNL     1      27.238 -16.031  -2.893 -0.33 -0.00    +0.000    26.104
ATOM      4  N   UNL     1      25.142 -14.630  -3.203 -0.49 -0.00    +0.000    26.104
ATOM      5  C   UNL     1      26.197 -15.409  -3.774 -0.55 -0.00    +0.000    26.104
ATOM      6  O   UNL     1      26.231 -15.606  -5.018 -1.07 +0.00    +0.000    26.104
ATOM      7  H   UNL     1      25.099 -14.508  -2.227 -0.02 -0.00    +0.000    26.104
ATOM      8  O   UNL     1      24.200 -14.062  -3.993 -1.03 -0.00    +0.000    26.104
ATOM      9  H   UNL     1      24.385 -14.277  -4.921 -0.41 -0.00    +0.000    26.104
ATOM     10  C   UNL     1      24.815 -17.463  -1.886 -0.65 -0.00    +0.000    26.104
ATOM     11  C   UNL     1      23.955 -18.653  -1.424 -0.70 -0.00    +0.000    26.104
ATOM     12  C   UNL     1      22.877 -18.282  -0.391 -0.83 -0.00    +0.000    26.104
ATOM     13  C   UNL     1      21.482 -18.438  -0.927 -0.79 -0.00    +0.000    26.104
ATOM     14  N   UNL     1      21.126 -19.591  -1.696 -0.66 -0.00    +0.000    26.104
ATOM     15  O   UNL     1      20.627 -17.536  -0.719 -2.11 +0.00    +0.000    26.104
ATOM     16  H   UNL     1      21.801 -20.284  -1.878 -0.46 -0.00    +0.000    26.104
ATOM     17  O   UNL     1      19.868 -19.736  -2.177 -1.88 -0.00    +0.000    26.104
ATOM     18  H   UNL     1      19.285 -19.086  -1.755 -0.45 -0.00    +0.000    26.104
TER
ENDMDL
MODEL       29
USER    Run = 29
USER    Cluster Rank = 2
USER    Number of conformations in this cluster = 32
USER  
USER    RMSD from reference structure       = 26.743 A
USER  
USER    Estimated Free Energy of Binding    =  -10.27 kcal/mol  [=(1)+(2)+(3)-(4)]
USER    Estimated Inhibition Constant, Ki   =   29.53 nM (nanomolar)  [Temperature = 298.15 K]
USER    
USER    (1) Final Intermolecular Energy     =  -12.96 kcal/mol
USER        vdW + Hbond + desolv Energy     =  -12.96 kcal/mol
USER        Electrostatic Energy            =   +0.00 kcal/mol
USER    (2) Final Total Internal Energy     =   -1.09 kcal/mol
USER    (3) Torsional Free Energy           =   +2.68 kcal/mol
USER    (4) Unbound System's Energy  [=(2)] =   -1.09 kcal/mol
USER    
USER    
USER  
USER    DPF = ligand_dock.biased.dpf
USER    NEWDPF move	ligand.pdbqt
USER    NEWDPF about	0.359000 0.163000 0.443000
USER    NEWDPF tran0	23.096933 -16.973418 -1.121743
USER    NEWDPF axisangle0	-0.133753 0.977190 0.164955 102.326331
USER    NEWDPF quaternion0	-0.104185 0.761167 0.128490 0.627105
USER    NEWDPF dihe0	178.54 158.73 91.47 -77.88 90.44 -162.93 98.48 -163.38 22.07 
USER  
USER                              x       y       z    vdW   Elec        q     RMS 
ATOM      1  C   UNL     1      24.034 -16.895  -1.268 -0.64 -0.00    +0.000    26.743
ATOM      2  C   UNL     1      23.513 -17.804  -0.148 -0.68 -0.00    +0.000    26.743
ATOM      3  C   UNL     1      22.898 -19.084  -0.721 -0.81 -0.00    +0.000    26.743
ATOM      4  N   UNL     1      20.681 -19.916  -1.640 -0.69 -0.00    +0.000    26.743
ATOM      5  C   UNL     1      21.439 -18.885  -1.001 -0.84 -0.00    +0.000    26.743
ATOM      6  O   UNL     1      20.889 -17.790  -0.707 -2.20 -0.00    +0.000    26.743
ATOM      7  H   UNL     1      21.122 -20.756  -1.900 -0.26 -0.00    +0.000    26.743
ATOM      8  O   UNL     1      19.361 -19.745  -1.892 -1.29 -0.00    +0.000    26.743
ATOM      9  H   UNL     1      19.078 -18.879  -1.556 -0.56 -0.00    +0.000    26.743
ATOM     10  C   UNL     1      25.409 -17.363  -1.764 -0.59 -0.00    +0.000    26.743
ATOM     11  C   UNL     1      26.296 -16.209  -2.266 -0.48 -0.00    +0.000    26.743
ATOM     12  C   UNL     1      27.628 -16.068  -1.508 -0.34 -0.00    +0.000    26.743
ATOM     13  C   UNL     1      27.481 -15.328  -0.209 -0.32 -0.00    +0.000    26.743
ATOM     14  N   UNL     1      28.476 -15.449   0.812 -0.10 -0.00    +0.000    26.743
ATOM     15  O   UNL     1      26.460 -14.616  -0.008 -0.37 -0.00    +0.000    26.743
ATOM     16  H   UNL     1      29.261 -16.025   0.663 -0.56 -0.00    +0.000    26.743
ATOM     17  O   UNL     1      28.347 -14.779   1.982 -0.27 -0.00    +0.000    26.743
ATOM     18  H   UNL     1      28.888 -15.210   2.662 -1.97 -0.00    +0.000    26.743
TER
ENDMDL
MODEL       67
USER    Run = 67
USER    Cluster Rank = 3
USER    Number of conformations in this cluster = 5
USER  
USER    RMSD from reference structure       = 26.925 A
USER  
USER    Estimated Free Energy of Binding    =   -9.29 kcal/mol  [=(1)+(2)+(3)-(4)]
USER    Estimated Inhibition Constant, Ki   =  155.79 nM (nanomolar)  [Temperature = 298.15 K]
USER    
USER    (1) Final Intermolecular Energy     =  -11.97 kcal/mol
USER        vdW + Hbond + desolv Energy     =  -11.97 kcal/mol
USER        Electrostatic Energy            =   +0.00 kcal/mol
USER    (2) Final Total Internal Energy     =   -1.46 kcal/mol
USER    (3) Torsional Free Energy           =   +2.68 kcal/mol
USER    (4) Unbound System's Energy  [=(2)] =   -1.46 kcal/mol
USER    
USER    
USER  
USER    DPF = ligand_dock.biased.dpf
USER    NEWDPF move	ligand.pdbqt
USER    NEWDPF about	0.359000 0.163000 0.443000
USER    NEWDPF tran0	26.243950 -16.441595 -1.882343
USER    NEWDPF axisangle0	0.173571 0.933795 0.312889 -105.808575
USER    NEWDPF quaternion0	0.138445 0.744822 0.249570 -0.603148
USER    NEWDPF dihe0	-178.57 -12.56 -179.55 -154.50 -49.29 173.56 -10.62 -89.58 77.88 
USER  
USER                              x       y       z    vdW   Elec        q     RMS 
ATOM      1  C   UNL     1      25.462 -16.772  -1.453 -0.60 -0.00    +0.000    26.925
ATOM      2  C   UNL     1      25.416 -16.410  -2.942 -0.45 -0.00    +0.000    26.925
ATOM      3  C   UNL     1      26.300 -15.195  -3.240 -0.49 -0.00    +0.000    26.925
ATOM      4  N   UNL     1      28.533 -15.925  -4.205 -0.30 -0.00    +0.000    26.925
ATOM      5  C   UNL     1      27.193 -15.470  -4.412 -0.42 -0.00    +0.000    26.925
ATOM      6  O   UNL     1      26.772 -15.262  -5.581 -1.17 +0.00    +0.000    26.925
ATOM      7  H   UNL     1      28.870 -16.052  -3.290 -0.01 -0.00    +0.000    26.925
ATOM      8  O   UNL     1      29.344 -16.180  -5.260 -0.36 -0.00    +0.000    26.925
ATOM      9  H   UNL     1      28.871 -15.983  -6.085 -0.04 -0.00    +0.000    26.925
ATOM     10  C   UNL     1      24.404 -17.831  -1.109 -0.75 -0.00    +0.000    26.925
ATOM     11  C   UNL     1      23.078 -17.223  -0.618 -0.71 -0.00    +0.000    26.925
ATOM     12  C   UNL     1      22.138 -18.236   0.059 -0.79 -0.00    +0.000    26.925
ATOM     13  C   UNL     1      20.981 -18.627  -0.816 -0.84 -0.00    +0.000    26.925
ATOM     14  N   UNL     1      21.129 -19.661  -1.794 -0.62 -0.00    +0.000    26.925
ATOM     15  O   UNL     1      19.881 -18.022  -0.706 -1.87 -0.00    +0.000    26.925
ATOM     16  H   UNL     1      21.996 -20.116  -1.896 -0.49 -0.00    +0.000    26.925
ATOM     17  O   UNL     1      20.086 -20.018  -2.581 -1.65 -0.00    +0.000    26.925
ATOM     18  H   UNL     1      19.270 -19.629  -2.231 -0.40 -0.00    +0.000    26.925
TER
ENDMDL
MODEL       45
USER    Run = 45
USER    Cluster Rank = 4
USER    Number of conformations in this cluster = 2
USER  
USER    RMSD from reference structure       = 27.626 A
USER  
USER    Estimated Free Energy of Binding    =   -9.06 kcal/mol  [=(1)+(2)+(3)-(4)]
USER    Estimated Inhibition Constant, Ki   =  228.80 nM (nanomolar)  [Temperature = 298.15 K]
USER    
USER    (1) Final Intermolecular Energy     =  -11.74 kcal/mol
USER        vdW + Hbond + desolv Energy     =  -11.74 kcal/mol
USER        Electrostatic Energy            =   +0.00 kcal/mol
USER    (2) Final Total Internal Energy     =   -1.59 kcal/mol
USER    (3) Torsional Free Energy           =   +2.68 kcal/mol
USER    (4) Unbound System's Energy  [=(2)] =   -1.59 kcal/mol
USER    
USER    
USER  
USER    DPF = ligand_dock.biased.dpf
USER    NEWDPF move	ligand.pdbqt
USER    NEWDPF about	0.359000 0.163000 0.443000
USER    NEWDPF tran0	23.780677 -18.330602 -2.310134
USER    NEWDPF axisangle0	0.396240 -0.867278 0.301368 -152.771113
USER    NEWDPF quaternion0	0.385106 -0.842909 0.292900 -0.235387
USER    NEWDPF dihe0	178.23 -4.47 -52.54 18.27 -86.27 -162.43 -93.28 -127.47 -150.02 
USER  
USER                              x       y       z    vdW   Elec        q     RMS 
ATOM      1  C   UNL     1      24.112 -17.541  -1.894 -0.54 -0.00    +0.000    27.626
ATOM      2  C   UNL     1      23.611 -18.705  -1.029 -0.81 -0.00    +0.000    27.626
ATOM      3  C   UNL     1      22.417 -18.277  -0.171 -0.82 -0.00    +0.000    27.626
ATOM      4  N   UNL     1      21.047 -19.737  -1.734 -0.67 -0.00    +0.000    27.626
ATOM      5  C   UNL     1      21.129 -18.605  -0.864 -0.83 -0.00    +0.000    27.626
ATOM      6  O   UNL     1      20.127 -17.856  -0.710 -2.08 +0.00    +0.000    27.626
ATOM      7  H   UNL     1      21.842 -20.299  -1.880 -0.46 -0.00    +0.000    27.626
ATOM      8  O   UNL     1      19.885 -20.042  -2.360 -1.74 -0.00    +0.000    27.626
ATOM      9  H   UNL     1      19.198 -19.412  -2.090 -0.47 -0.00    +0.000    27.626
ATOM     10  C   UNL     1      25.146 -16.696  -1.137 -0.62 -0.00    +0.000    27.626
ATOM     11  C   UNL     1      26.104 -17.541  -0.277 -0.61 -0.00    +0.000    27.626
ATOM     12  C   UNL     1      27.446 -16.851   0.025 -0.37 -0.00    +0.000    27.626
ATOM     13  C   UNL     1      28.424 -16.965  -1.110 -0.34 -0.00    +0.000    27.626
ATOM     14  N   UNL     1      29.507 -17.897  -1.043 -0.27 -0.00    +0.000    27.626
ATOM     15  O   UNL     1      28.304 -16.216  -2.116 -0.29 -0.00    +0.000    27.626
ATOM     16  H   UNL     1      29.614 -18.465  -0.246 -0.59 -0.00    +0.000    27.626
ATOM     17  O   UNL     1      30.387 -18.005  -2.067 -0.23 -0.00    +0.000    27.626
ATOM     18  H   UNL     1      30.104 -17.433  -2.797 -0.01 -0.00    +0.000    27.626
TER
ENDMDL
MODEL       30
USER    Run = 30
USER    Cluster Rank = 5
USER    Number of conformations in this cluster = 1
USER  
USER    RMSD from reference structure       = 24.199 A
USER  
USER    Estimated Free Energy of Binding    =   -8.76 kcal/mol  [=(1)+(2)+(3)-(4)]
USER    Estimated Inhibition Constant, Ki   =  382.33 nM (nanomolar)  [Temperature = 298.15 K]
USER    
USER    (1) Final Intermolecular Energy     =  -11.44 kcal/mol
USER        vdW + Hbond + desolv Energy     =  -11.44 kcal/mol
USER        Electrostatic Energy            =   +0.00 kcal/mol
USER    (2) Final Total Internal Energy     =   -1.35 kcal/mol
USER    (3) Torsional Free Energy           =   +2.68 kcal/mol
USER    (4) Unbound System's Energy  [=(2)] =   -1.35 kcal/mol
USER    
USER    
USER  
USER    DPF = ligand_dock.biased.dpf
USER    NEWDPF move	ligand.pdbqt
USER    NEWDPF about	0.359000 0.163000 0.443000
USER    NEWDPF tran0	17.943636 -20.215826 1.158345
USER    NEWDPF axisangle0	0.999625 -0.019677 -0.019069 127.375099
USER    NEWDPF quaternion0	0.896054 -0.017638 -0.017093 0.443266
USER    NEWDPF dihe0	178.57 29.41 28.33 102.23 -83.94 57.43 -36.45 176.88 -99.05 
USER  
USER                              x       y       z    vdW   Elec        q     RMS 
ATOM      1  C   UNL     1      17.615 -20.934   1.690 -0.67 -0.00    +0.000    24.199
ATOM      2  C   UNL     1      19.063 -20.458   1.865 -0.62 -0.00    +0.000    24.199
ATOM      3  C   UNL     1      19.859 -20.632   0.568 -0.69 -0.00    +0.000    24.199
ATOM      4  N   UNL     1      21.106 -18.625  -0.363 -0.75 -0.00    +0.000    24.199
ATOM      5  C   UNL     1      19.883 -19.351  -0.209 -0.85 -0.00    +0.000    24.199
ATOM      6  O   UNL     1      18.814 -18.893  -0.693 -0.80 -0.00    +0.000    24.199
ATOM      7  H   UNL     1      21.932 -18.968   0.047 -0.09 -0.00    +0.000    24.199
ATOM      8  O   UNL     1      21.136 -17.468  -1.067 -1.82 -0.00    +0.000    24.199
ATOM      9  H   UNL     1      20.251 -17.283  -1.421 -0.54 -0.00    +0.000    24.199
ATOM     10  C   UNL     1      17.089 -21.586   2.976 -0.29 -0.00    +0.000    24.199
ATOM     11  C   UNL     1      16.420 -20.582   3.933 -0.54 -0.00    +0.000    24.199
ATOM     12  C   UNL     1      14.882 -20.600   3.883 -0.30 -0.00    +0.000    24.199
ATOM     13  C   UNL     1      14.257 -20.489   5.244 -0.80 -0.00    +0.000    24.199
ATOM     14  N   UNL     1      15.017 -20.792   6.418 -0.66 -0.00    +0.000    24.199
ATOM     15  O   UNL     1      13.047 -20.152   5.351 -0.93 -0.00    +0.000    24.199
ATOM     16  H   UNL     1      15.955 -21.078   6.332 -0.02 -0.00    +0.000    24.199
ATOM     17  O   UNL     1      14.457 -20.688   7.647 -0.62 -0.00    +0.000    24.199
ATOM     18  H   UNL     1      13.504 -20.860   7.582 -0.43 -0.00    +0.000    24.199
TER
ENDMDL
MODEL       59
USER    Run = 59
USER    Cluster Rank = 6
USER    Number of conformations in this cluster = 1
USER  
USER    RMSD from reference structure       = 26.522 A
USER  
USER    Estimated Free Energy of Binding    =   -7.92 kcal/mol  [=(1)+(2)+(3)-(4)]
USER    Estimated Inhibition Constant, Ki   =    1.58 uM (micromolar)  [Temperature = 298.15 K]
USER    
USER    (1) Final Intermolecular Energy     =  -10.60 kcal/mol
USER        vdW + Hbond + desolv Energy     =  -10.60 kcal/mol
USER        Electrostatic Energy            =   +0.00 kcal/mol
USER    (2) Final Total Internal Energy     =   -1.58 kcal/mol
USER    (3) Torsional Free Energy           =   +2.68 kcal/mol
USER    (4) Unbound System's Energy  [=(2)] =   -1.58 kcal/mol
USER    
USER    
USER  
USER    DPF = ligand_dock.biased.dpf
USER    NEWDPF move	ligand.pdbqt
USER    NEWDPF about	0.359000 0.163000 0.443000
USER    NEWDPF tran0	24.343864 -17.272434 -1.566998
USER    NEWDPF axisangle0	-0.805193 0.590150 0.058194 129.299044
USER    NEWDPF quaternion0	-0.727658 0.533322 0.052590 0.428154
USER    NEWDPF dihe0	179.86 -2.38 -167.17 -155.16 -150.03 14.44 -25.49 -93.09 148.31 
USER  
USER                              x       y       z    vdW   Elec        q     RMS 
ATOM      1  C   UNL     1      24.651 -16.491  -1.119 -0.57 -0.00    +0.000    26.522
ATOM      2  C   UNL     1      25.488 -17.775  -1.069 -0.65 -0.00    +0.000    26.522
ATOM      3  C   UNL     1      24.631 -18.973  -0.650 -0.44 -0.00    +0.000    26.522
ATOM      4  N   UNL     1      22.303 -18.018  -0.309 -0.76 -0.00    +0.000    26.522
ATOM      5  C   UNL     1      23.213 -18.787  -1.099 -0.81 -0.00    +0.000    26.522
ATOM      6  O   UNL     1      22.814 -19.344  -2.157 -0.69 -0.00    +0.000    26.522
ATOM      7  H   UNL     1      22.609 -17.614   0.534 -0.04 -0.00    +0.000    26.522
ATOM      8  O   UNL     1      21.021 -17.841  -0.712 -2.15 -0.00    +0.000    26.522
ATOM      9  H   UNL     1      20.883 -18.299  -1.556 -0.06 -0.00    +0.000    26.522
ATOM     10  C   UNL     1      25.535 -15.249  -0.935 -0.35 -0.00    +0.000    26.522
ATOM     11  C   UNL     1      26.859 -15.551  -0.211 -0.35 -0.00    +0.000    26.522
ATOM     12  C   UNL     1      27.636 -14.296   0.222 -0.26 -0.00    +0.000    26.522
ATOM     13  C   UNL     1      27.369 -13.913   1.650 -0.30 -0.00    +0.000    26.522
ATOM     14  N   UNL     1      28.084 -14.544   2.717 -0.32 -0.00    +0.000    26.522
ATOM     15  O   UNL     1      26.489 -13.050   1.912 -0.41 -0.00    +0.000    26.522
ATOM     16  H   UNL     1      28.754 -15.237   2.512 -1.85 -0.00    +0.000    26.522
ATOM     17  O   UNL     1      27.847 -14.198   4.004 -0.56 -0.00    +0.000    26.522
ATOM     18  H   UNL     1      27.193 -13.483   4.031 -0.03 -0.00    +0.000    26.522
TER
ENDMDL
MODEL       90
USER    Run = 90
USER    Cluster Rank = 7
USER    Number of conformations in this cluster = 2
USER  
USER    RMSD from reference structure       = 27.475 A
USER  
USER    Estimated Free Energy of Binding    =   -5.18 kcal/mol  [=(1)+(2)+(3)-(4)]
USER    Estimated Inhibition Constant, Ki   =  159.01 uM (micromolar)  [Temperature = 298.15 K]
USER    
USER    (1) Final Intermolecular Energy     =   -7.87 kcal/mol
USER        vdW + Hbond + desolv Energy     =   -7.87 kcal/mol
USER        Electrostatic Energy            =   +0.00 kcal/mol
USER    (2) Final Total Internal Energy     =   -4.11 kcal/mol
USER    (3) Torsional Free Energy           =   +2.68 kcal/mol
USER    (4) Unbound System's Energy  [=(2)] =   -4.11 kcal/mol
USER    
USER    
USER  
USER    DPF = ligand_dock.biased.dpf
USER    NEWDPF move	ligand.pdbqt
USER    NEWDPF about	0.359000 0.163000 0.443000
USER    NEWDPF tran0	28.266638 -11.892940 2.630689
USER    NEWDPF axisangle0	0.470440 0.749642 -0.465535 -160.735784
USER    NEWDPF quaternion0	0.463808 0.739074 -0.458972 -0.167321
USER    NEWDPF dihe0	179.55 -178.78 -155.22 96.56 169.43 -147.87 47.72 177.93 -102.36 
USER  
USER                              x       y       z    vdW   Elec        q     RMS 
ATOM      1  C   UNL     1      28.625 -11.330   3.309 -0.18 +0.00    +0.000    27.475
ATOM      2  C   UNL     1      27.430 -10.851   2.475 -0.27 +0.00    +0.000    27.475
ATOM      3  C   UNL     1      26.670 -12.037   1.873 -0.36 +0.00    +0.000    27.475
ATOM      4  N   UNL     1      28.636 -13.539   1.300 -0.16 -0.00    +0.000    27.475
ATOM      5  C   UNL     1      27.446 -13.306   2.058 -0.32 -0.00    +0.000    27.475
ATOM      6  O   UNL     1      27.024 -14.186   2.856 -0.36 -0.00    +0.000    27.475
ATOM      7  H   UNL     1      28.942 -12.865   0.652 +0.00 -0.00    +0.000    27.475
ATOM      8  O   UNL     1      29.344 -14.682   1.465 -0.20 -0.00    +0.000    27.475
ATOM      9  H   UNL     1      28.915 -15.233   2.140 -1.78 -0.00    +0.000    27.475
ATOM     10  C   UNL     1      28.646 -10.648   4.685 -0.25 +0.00    +0.000    27.475
ATOM     11  C   UNL     1      27.791 -11.381   5.735 -0.36 +0.00    +0.000    27.475
ATOM     12  C   UNL     1      28.608 -12.235   6.721 -0.41 -0.00    +0.000    27.475
ATOM     13  C   UNL     1      29.281 -13.402   6.056 -0.41 -0.00    +0.000    27.475
ATOM     14  N   UNL     1      28.753 -13.950   4.845 -0.44 -0.00    +0.000    27.475
ATOM     15  O   UNL     1      30.303 -13.918   6.584 -0.36 -0.00    +0.000    27.475
ATOM     16  H   UNL     1      27.941 -13.562   4.447 -0.02 -0.00    +0.000    27.475
ATOM     17  O   UNL     1      29.361 -15.000   4.242 -0.48 -0.00    +0.000    27.475
ATOM     18  H   UNL     1      28.882 -15.226   3.429 -1.51 -0.00    +0.000    27.475
TER
ENDMDL


AVSFLD: # AVS field file
AVSFLD: #
AVSFLD: # Created by AutoDock
AVSFLD: #
AVSFLD: ndim=2           # number of dimensions in the field
AVSFLD: nspace=1         # number of physical coordinates
AVSFLD: veclen=7         # vector size
AVSFLD: dim1=18          # atoms
AVSFLD: dim2=7           # conformations
AVSFLD: data=Real       # data type (byte,integer,Real,double)
AVSFLD: field=uniform    # field coordinate layout
AVSFLD: label= x y z vdW Elec q RMS
AVSFLD: variable 1 file = ligand_dock.biased.dlg.pdb filetype = ascii offset = 5 stride = 12
AVSFLD: variable 2 file = ligand_dock.biased.dlg.pdb filetype = ascii offset = 6 stride = 12
AVSFLD: variable 3 file = ligand_dock.biased.dlg.pdb filetype = ascii offset = 7 stride = 12
AVSFLD: variable 4 file = ligand_dock.biased.dlg.pdb filetype = ascii offset = 8 stride = 12
AVSFLD: variable 5 file = ligand_dock.biased.dlg.pdb filetype = ascii offset = 9 stride = 12
AVSFLD: variable 6 file = ligand_dock.biased.dlg.pdb filetype = ascii offset = 10 stride = 12
AVSFLD: variable 7 file = ligand_dock.biased.dlg.pdb filetype = ascii offset = 11 stride = 12
AVSFLD: # end of file

>>> Closing the docking parameter file (DPF)...
This docking finished at:			10:13 02" a.m., 11/08/2024


________________________________________________________________________________

autodock4: Successful Completion on "ThinkStation-P620"

Real= 9m 46.17s,  CPU= 9m 45.95s,  System= 0.19s
________________________________________________________________________________

