REMARK  Name = 
REMARK  11 active torsions:
REMARK  status: ('A' for Active; 'I' for Inactive)
REMARK    1  A    between atoms: C_2  and  O_3
REMARK    2  A    between atoms: O_3  and  C_4
REMARK    3  A    between atoms: C_4  and  C_5
REMARK    4  A    between atoms: C_10  and  C_11
REMARK    5  A    between atoms: C_11  and  N_12
REMARK    6  A    between atoms: N_12  and  C_13
REMARK    7  A    between atoms: N_12  and  C_15
REMARK    8  A    between atoms: C_13  and  C_14
REMARK    9  A    between atoms: C_15  and  C_16
REMARK   10  A    between atoms: N_21  and  C_22
REMARK   11  A    between atoms: C_25  and  C_26
REMARK                            x       y       z     vdW  Elec       q    Type
REMARK                         _______ _______ _______ _____ _____    ______ ____
ROOT
ATOM      1  C   UNL     1       1.977  -0.240  -2.333  0.00  0.00     0.000 C 
ENDROOT
BRANCH   1   2
ATOM      2  C   UNL     1       0.489  -0.155  -2.148  0.00  0.00     0.000 A 
ATOM      3  C   UNL     1      -0.235   0.927  -2.670  0.00  0.00     0.000 A 
ATOM      4  C   UNL     1      -1.618   1.011  -2.480  0.00  0.00     0.000 A 
ATOM      5  C   UNL     1      -2.292   0.020  -1.752  0.00  0.00     0.000 A 
ATOM      6  C   UNL     1      -3.678   0.101  -1.548  0.00  0.00     0.000 A 
ATOM      7  C   UNL     1      -4.344  -0.875  -0.789  0.00  0.00     0.000 A 
ATOM      8  C   UNL     1      -3.618  -1.959  -0.270  0.00  0.00     0.000 A 
ATOM      9  C   UNL     1      -2.238  -2.052  -0.475  0.00  0.00     0.000 A 
ATOM     10  C   UNL     1      -1.565  -1.066  -1.210  0.00  0.00     0.000 A 
ATOM     11  C   UNL     1      -0.179  -1.147  -1.413  0.00  0.00     0.000 A 
ATOM     35  CM  UNL     1      -0.900  -0.068  -1.946  1.00  0.00     0.000 AC
ATOM     36  CM  UNL     1      -2.956  -0.972  -1.007  1.00  0.00     0.000 AC
BRANCH   7  12
ATOM     12  C   UNL     1      -5.835  -0.787  -0.584  0.00  0.00     0.000 C 
BRANCH  12  13
ATOM     13  N   UNL     1      -6.225   0.555  -0.099  0.00  0.00     0.000 N 
ATOM     14  H   UNL     1      -5.686   1.169  -0.711  0.00  0.00     0.000 HD
BRANCH  13  15
ATOM     15  C   UNL     1      -7.635   0.912  -0.364  0.00  0.00     0.000 C 
ATOM     16  C   UNL     1      -8.637   0.154   0.510  0.00  0.00     0.000 C 
ENDBRANCH  13  15
BRANCH  13  17
ATOM     17  C   UNL     1      -5.711   0.962   1.234  0.00  0.00     0.000 C 
ATOM     18  C   UNL     1      -5.747  -0.139   2.303  0.00  0.00     0.000 C 
ENDBRANCH  13  17
ENDBRANCH  12  13
ENDBRANCH   7  12
ENDBRANCH   1   2
BRANCH   1  19
ATOM     19  O   UNL     1       2.620   0.020  -1.090  0.00  0.00     0.000 OA
BRANCH  19  21
ATOM     20  O   UNL     1       4.751  -0.293  -1.916  0.00  0.00     0.000 OA
ATOM     21  C   UNL     1       4.008  -0.028  -0.931  0.00  0.00     0.000 C 
ATOM     22  N   UNL     1       4.567   0.181   0.373  0.00  0.00     0.000 N 
ATOM     23  H   UNL     1       3.945   0.266   1.132  0.00  0.00     0.000 HD
BRANCH  22  24
ATOM     24  C   UNL     1       5.975   0.276   0.646  0.00  0.00     0.000 A 
ATOM     25  C   UNL     1       6.479  -0.239   1.849  0.00  0.00     0.000 A 
ATOM     26  C   UNL     1       7.839  -0.137   2.152  0.00  0.00     0.000 A 
ATOM     27  C   UNL     1       8.722   0.505   1.264  0.00  0.00     0.000 A 
ATOM     28  C   UNL     1       8.213   1.027   0.061  0.00  0.00     0.000 A 
ATOM     29  C   UNL     1       6.852   0.923  -0.240  0.00  0.00     0.000 A 
ATOM     37  CM  UNL     1       7.347   0.393   0.955  1.00  0.00     0.000 AC
BRANCH  27  30
ATOM     30  C   UNL     1      10.170   0.626   1.569  0.00  0.00     0.000 C 
ATOM     31  N   UNL     1      10.660   0.544   2.912  0.00  0.00     0.000 N 
ATOM     32  O   UNL     1      11.991   0.554   3.152  0.00  0.00     0.000 OA
ATOM     33  O   UNL     1      10.989   0.819   0.629  0.00  0.00     0.000 OA
ATOM     34  H   UNL     1      10.026   0.481   3.662  0.00  0.00     0.000 HD
ENDBRANCH  27  30
ENDBRANCH  22  24
ENDBRANCH  19  21
ENDBRANCH   1  19
TORSDOF 9