          AutoDock 4.2 Release 4.2.6   
         (C) 1989-2012 The Scripps Research Institute
        AutoDock comes with ABSOLUTELY NO WARRANTY.
        AutoDock is free software, and you are welcome
        to redistribute it under certain conditions;
        for details type 'autodock4 -C'

                     main.cc  $Revision: 1.213 $

                   Compiled on Feb 20 2022 at 09:48:33


This file was created at:			6:07 09" p.m., 11/08/2024
                   on host:		"ThinkStation-P620"
Current Working Directory = "/home/antonio/Documenti/buccheri/IDROSSAMICO HDAC/HDAC 8/DP (copia)/Ligand_2"

      ________________________________________________________________

                   SETTING UP DEFAULT PARAMETER LIBRARY
      ________________________________________________________________


Random number generator was seeded with values 355266, 1731085629.
Docking parameter file (DPF) used for this docking:		ligand_dock.biased.dpf
DPF> parameter_file ad4_arom_params.dat

Using read_parameter_library() to try to open and read "ad4_arom_params.dat".

DPF> autodock_parameter_version 4.2       # used by autodock to validate parameter set

	Autodock parameter version 4.2.
DPF> outlev 1                             # diagnostic output level

Output Level = 1  ADT-COMPATIBLE OUTPUT DURING DOCKING.
DPF> intelec                              # calculate internal electrostatics

Electrostatic energies will be calculated for all non-bonds between moving atoms.
DPF> seed pid time                        # seeds for random generator

Random number generator was seeded with values 355266, 1731085629.
DPF> ligand_types A C OA HD N AC

WARNING: pairwise distance, Rij, 0.00, is not a very reasonable value for the equilibrium separation of two atoms! (0.90 Angstroms <= Rij <= 6.00 Angstroms)

Perhaps you meant to use "intnbp_coeffs" instead of "intnbp_r_eps"?

DPF> fld receptor.maps.fld                # grid_data_file

Opening Grid Map Dimensions file:		receptor.maps.fld
Grid Point Spacing =				0.375 Angstroms

Even Number of User-specified Grid Points =	70 x-points
						70 y-points
						70 z-points

Coordinates of Central Grid Point of Maps =	(36.691, 12.592, 124.207)
Macromolecule file used to create Grid Maps =	receptor.pdbqt
Grid Parameter file used to create Grid Maps =	receptor.gpf
Minimum coordinates in grid = (23.566, -0.533, 111.082)
Maximum coordinates in grid = (49.816, 25.717, 137.332)

DPF> map receptor.A.map                   # atom-specific affinity map

DPF> map receptor.C.map                   # atom-specific affinity map

DPF> map receptor.OA.biased.map

DPF> map receptor.HD.map                  # atom-specific affinity map

DPF> map receptor.N.map                   # atom-specific affinity map

DPF> map receptor.AC.biased.map

DPF> elecmap receptor.e.map               # electrostatics map

DPF> desolvmap receptor.d.map             # desolvation map

DPF> move ligand.dum.pdbqt

1,4-interactions will be _ignored_ in the non-bonded internal energy calculation.

Ligand PDBQT file = "ligand.dum.pdbqt"

INPUT LIGAND PDBQT FILE:
________________________

INPUT-LIGAND-PDBQT: REMARK  Name = 
INPUT-LIGAND-PDBQT: REMARK  11 active torsions:
INPUT-LIGAND-PDBQT: REMARK  status: ('A' for Active; 'I' for Inactive)
INPUT-LIGAND-PDBQT: REMARK    1  A    between atoms: C_2  and  O_3
INPUT-LIGAND-PDBQT: REMARK    2  A    between atoms: O_3  and  C_4
INPUT-LIGAND-PDBQT: REMARK    3  A    between atoms: C_4  and  C_5
INPUT-LIGAND-PDBQT: REMARK    4  A    between atoms: C_10  and  C_11
INPUT-LIGAND-PDBQT: REMARK    5  A    between atoms: C_11  and  N_12
INPUT-LIGAND-PDBQT: REMARK    6  A    between atoms: N_12  and  C_13
INPUT-LIGAND-PDBQT: REMARK    7  A    between atoms: N_12  and  C_15
INPUT-LIGAND-PDBQT: REMARK    8  A    between atoms: C_13  and  C_14
INPUT-LIGAND-PDBQT: REMARK    9  A    between atoms: C_15  and  C_16
INPUT-LIGAND-PDBQT: REMARK   10  A    between atoms: N_21  and  C_22
INPUT-LIGAND-PDBQT: REMARK   11  A    between atoms: C_25  and  C_26
INPUT-LIGAND-PDBQT: REMARK                            x       y       z     vdW  Elec       q    Type
INPUT-LIGAND-PDBQT: REMARK                         _______ _______ _______ _____ _____    ______ ____
INPUT-LIGAND-PDBQT: ROOT
INPUT-LIGAND-PDBQT: ATOM      1  C   UNL     1       1.977  -0.240  -2.333  0.00  0.00     0.000 C 
INPUT-LIGAND-PDBQT: ENDROOT
INPUT-LIGAND-PDBQT: BRANCH   1   2
INPUT-LIGAND-PDBQT: ATOM      2  C   UNL     1       0.489  -0.155  -2.148  0.00  0.00     0.000 A 
INPUT-LIGAND-PDBQT: ATOM      3  C   UNL     1      -0.235   0.927  -2.670  0.00  0.00     0.000 A 
INPUT-LIGAND-PDBQT: ATOM      4  C   UNL     1      -1.618   1.011  -2.480  0.00  0.00     0.000 A 
INPUT-LIGAND-PDBQT: ATOM      5  C   UNL     1      -2.292   0.020  -1.752  0.00  0.00     0.000 A 
INPUT-LIGAND-PDBQT: ATOM      6  C   UNL     1      -3.678   0.101  -1.548  0.00  0.00     0.000 A 
INPUT-LIGAND-PDBQT: ATOM      7  C   UNL     1      -4.344  -0.875  -0.789  0.00  0.00     0.000 A 
INPUT-LIGAND-PDBQT: ATOM      8  C   UNL     1      -3.618  -1.959  -0.270  0.00  0.00     0.000 A 
INPUT-LIGAND-PDBQT: ATOM      9  C   UNL     1      -2.238  -2.052  -0.475  0.00  0.00     0.000 A 
INPUT-LIGAND-PDBQT: ATOM     10  C   UNL     1      -1.565  -1.066  -1.210  0.00  0.00     0.000 A 
INPUT-LIGAND-PDBQT: ATOM     11  C   UNL     1      -0.179  -1.147  -1.413  0.00  0.00     0.000 A 
INPUT-LIGAND-PDBQT: ATOM     35  CM  UNL     1      -0.900  -0.068  -1.946  1.00  0.00     0.000 AC
INPUT-LIGAND-PDBQT: ATOM     36  CM  UNL     1      -2.956  -0.972  -1.007  1.00  0.00     0.000 AC
INPUT-LIGAND-PDBQT: BRANCH   7  12
INPUT-LIGAND-PDBQT: ATOM     12  C   UNL     1      -5.835  -0.787  -0.584  0.00  0.00     0.000 C 
INPUT-LIGAND-PDBQT: BRANCH  12  13
INPUT-LIGAND-PDBQT: ATOM     13  N   UNL     1      -6.225   0.555  -0.099  0.00  0.00     0.000 N 
INPUT-LIGAND-PDBQT: ATOM     14  H   UNL     1      -5.686   1.169  -0.711  0.00  0.00     0.000 HD
INPUT-LIGAND-PDBQT: BRANCH  13  15
INPUT-LIGAND-PDBQT: ATOM     15  C   UNL     1      -7.635   0.912  -0.364  0.00  0.00     0.000 C 
INPUT-LIGAND-PDBQT: ATOM     16  C   UNL     1      -8.637   0.154   0.510  0.00  0.00     0.000 C 
INPUT-LIGAND-PDBQT: ENDBRANCH  13  15
INPUT-LIGAND-PDBQT: BRANCH  13  17
INPUT-LIGAND-PDBQT: ATOM     17  C   UNL     1      -5.711   0.962   1.234  0.00  0.00     0.000 C 
INPUT-LIGAND-PDBQT: ATOM     18  C   UNL     1      -5.747  -0.139   2.303  0.00  0.00     0.000 C 
INPUT-LIGAND-PDBQT: ENDBRANCH  13  17
INPUT-LIGAND-PDBQT: ENDBRANCH  12  13
INPUT-LIGAND-PDBQT: ENDBRANCH   7  12
INPUT-LIGAND-PDBQT: ENDBRANCH   1   2
INPUT-LIGAND-PDBQT: BRANCH   1  19
INPUT-LIGAND-PDBQT: ATOM     19  O   UNL     1       2.620   0.020  -1.090  0.00  0.00     0.000 OA
INPUT-LIGAND-PDBQT: BRANCH  19  21
INPUT-LIGAND-PDBQT: ATOM     20  O   UNL     1       4.751  -0.293  -1.916  0.00  0.00     0.000 OA
INPUT-LIGAND-PDBQT: ATOM     21  C   UNL     1       4.008  -0.028  -0.931  0.00  0.00     0.000 C 
INPUT-LIGAND-PDBQT: ATOM     22  N   UNL     1       4.567   0.181   0.373  0.00  0.00     0.000 N 
INPUT-LIGAND-PDBQT: ATOM     23  H   UNL     1       3.945   0.266   1.132  0.00  0.00     0.000 HD
INPUT-LIGAND-PDBQT: BRANCH  22  24
INPUT-LIGAND-PDBQT: ATOM     24  C   UNL     1       5.975   0.276   0.646  0.00  0.00     0.000 A 
INPUT-LIGAND-PDBQT: ATOM     25  C   UNL     1       6.479  -0.239   1.849  0.00  0.00     0.000 A 
INPUT-LIGAND-PDBQT: ATOM     26  C   UNL     1       7.839  -0.137   2.152  0.00  0.00     0.000 A 
INPUT-LIGAND-PDBQT: ATOM     27  C   UNL     1       8.722   0.505   1.264  0.00  0.00     0.000 A 
INPUT-LIGAND-PDBQT: ATOM     28  C   UNL     1       8.213   1.027   0.061  0.00  0.00     0.000 A 
INPUT-LIGAND-PDBQT: ATOM     29  C   UNL     1       6.852   0.923  -0.240  0.00  0.00     0.000 A 
INPUT-LIGAND-PDBQT: ATOM     37  CM  UNL     1       7.347   0.393   0.955  1.00  0.00     0.000 AC
INPUT-LIGAND-PDBQT: BRANCH  27  30
INPUT-LIGAND-PDBQT: ATOM     30  C   UNL     1      10.170   0.626   1.569  0.00  0.00     0.000 C 
INPUT-LIGAND-PDBQT: ATOM     31  N   UNL     1      10.660   0.544   2.912  0.00  0.00     0.000 N 
INPUT-LIGAND-PDBQT: ATOM     32  O   UNL     1      11.991   0.554   3.152  0.00  0.00     0.000 OA
INPUT-LIGAND-PDBQT: ATOM     33  O   UNL     1      10.989   0.819   0.629  0.00  0.00     0.000 OA
INPUT-LIGAND-PDBQT: ATOM     34  H   UNL     1      10.026   0.481   3.662  0.00  0.00     0.000 HD
INPUT-LIGAND-PDBQT: ENDBRANCH  27  30
INPUT-LIGAND-PDBQT: ENDBRANCH  22  24
INPUT-LIGAND-PDBQT: ENDBRANCH  19  21
INPUT-LIGAND-PDBQT: ENDBRANCH   1  19
INPUT-LIGAND-PDBQT: TORSDOF 9________________________________________________________________________________

Total charge on ligand                               =	+0.000 e
REMARK  Name = 
REMARK  11 active torsions:
REMARK  status: ('A' for Active; 'I' for Inactive)
REMARK    1  A    between atoms: C_2  and  O_3
REMARK    2  A    between atoms: O_3  and  C_4
REMARK    3  A    between atoms: C_4  and  C_5
REMARK    4  A    between atoms: C_10  and  C_11
REMARK    5  A    between atoms: C_11  and  N_12
REMARK    6  A    between atoms: N_12  and  C_13
REMARK    7  A    between atoms: N_12  and  C_15
REMARK    8  A    between atoms: C_13  and  C_14
REMARK    9  A    between atoms: C_15  and  C_16
REMARK   10  A    between atoms: N_21  and  C_22
REMARK   11  A    between atoms: C_25  and  C_26
REMARK                            x       y       z     vdW  Elec       q    Type
REMARK                         _______ _______ _______ _____ _____    ______ ____


Number of Rotatable Bonds in Small Molecule =	9 torsions
Number of atoms in ligand:  37

Number of non-hydrogen atoms in ligand:  34

Number of vibrational degrees of freedom of ligand:  105


Number of torsional degrees of freedom = 9
Estimated loss of torsional free energy upon binding = +2.6847 kcal/mol


DPF> about 1.619 0.086 0.013            # small molecule center

Small molecule center of rotation =	(+1.619, +0.086, +0.013)

DPF> tran0 random                         # initial coordinates/A or random

Initial translation =			(44.893, 15.671, 126.279) Angstroms
DPF> quaternion0 random                   # initial orientation

Each run will begin with a new, random initial orientation.
Initial quaternion,  (x,y,z,w) =	( 0.849, -0.114, -0.154, 0.493 ),
DPF> dihe0 random                         # initial dihedrals (relative) or random

DPF> torsdof 9                            # torsional degrees of freedom

Number of torsional degrees of freedom = 9
Free energy coefficient for torsional degrees of freedom = 0.2983 as specified in parameter library "ad4_arom_params.dat".

Estimated loss of torsional free energy upon binding = +2.6847 kcal/mol

DPF> rmstol 2.0                           # cluster_tolerance/A

Maximum RMS tolerance for conformational cluster analysis = 2.00 Angstroms
DPF> extnrg 1000.0                        # external grid energy

External grid energy (beyond grid map walls) = 1000.00

DPF> e0max 0.0 10000                      # max initial energy; max number of retries

Using user-specified maximum number of retries for simanneal initialization, 10000 retries.
If the simanneal initial energy is greater than e0max, 0.000,
then a new, random initial state will be created.

DPF> ga_pop_size 150                      # number of individuals in population

A population of 150 individuals will be used
DPF> ga_num_evals 2500000                 # maximum number of energy evaluations

There will be at most 2500000 function evaluations used.
DPF> ga_num_generations 27000             # maximum number of generations

The GA will run for at most 27000 generations.
DPF> ga_elitism 1                         # number of top individuals to survive to next generation

The 1 best will be preserved each GA generation.
DPF> ga_mutation_rate 0.02                # rate of gene mutation

The mutation rate is 0.020000.
DPF> ga_crossover_rate 0.8                # rate of crossover

The crossover rate is 0.800000.
DPF> ga_window_size 10                    # 

The GA's selection window is 10 generations.
DPF> ga_cauchy_alpha 0.0                  # Alpha parameter of Cauchy distribution

The alpha parameter (for the Cauchy distribution) is being set to 0.000000.
DPF> ga_cauchy_beta 1.0                   # Beta parameter Cauchy distribution

The beta parameter (for the Cauchy distribution) is being set to 1.000000.
DPF> set_ga                               # set the above parameters for GA or LGA

DPF> sw_max_its 300                       # iterations of Solis & Wets local search

Solis & Wets algorithms will perform at most 300 iterations.
DPF> sw_max_succ 4                        # consecutive successes before changing rho

Solis & Wets algorithms expand rho every 4 in a row successes.
DPF> sw_max_fail 4                        # consecutive failures before changing rho

Solis & Wets algorithms contract rho every 4 in a row failures.
DPF> sw_rho 1.0                           # size of local search space to sample

rho is set to 1.000000.
DPF> sw_lb_rho 0.01                       # lower bound on rho

rho will never get smaller than 0.010000.
DPF> ls_search_freq 0.06                  # probability of performing local search on individual

Local search will be performed with frequency 0.060000.
DPF> set_psw1                             # set the above pseudo-Solis & Wets parameters

Creating a new Local Search object using the pseudo-Solis-Wets algorithm (pSW1) with the current settings.

DPF> unbound_model bound                  # state of unbound ligand

DPF> ga_run 100                           # do this many hybrid GA-LS runs

centering ligand on specified point: 1.619 0.086 0.013
Furthest true ligand atom from "about" center is 10.847 Angstroms (maxrad).
Number of requested GA dockings = 100 runs
Unbound model to be used is 'same as bound' [AutoDock 4.2 default].

	BEGINNING GENETIC ALGORITHM DOCKING 1 of 100
Run: 1 Seed: 1851824516 996870358 [ Run 1 of 100 GA/GALS ]
Beginning LAMARCKIAN GENETIC ALGORITHM (LGA), with a maximum of 2500000 energy evaluations.

Final-Value: -16.662


	FINAL GENETIC ALGORITHM DOCKED STATE
	_______________________________________________


Detailed state:  trans 36.598 17.081 120.676 quatxyzw -0.878891 0.175045 -0.397915 0.196403 center 1.619 0.086 0.013 ntor 9 -180.0000 -62.9819 180.0000 163.4289 -176.4257 -81.7451 -21.1172 93.8234 -166.9907
State:	 36.598  17.081 120.676  -0.896  0.179 -0.406 157.347   -180.00  -62.98  180.00  163.43 -176.43  -81.75  -21.12   93.82 -166.99

DOCKED: MODEL        1
DOCKED: USER    Run = 1
DOCKED: USER    DPF = ligand_dock.biased.dpf
DOCKED: USER  
DOCKED: USER    Estimated Free Energy of Binding    =  -12.54 kcal/mol  [=(1)+(2)+(3)-(4)]
DOCKED: USER    Estimated Inhibition Constant, Ki   =  644.28 pM (picomolar)  [Temperature = 298.15 K]
DOCKED: USER    
DOCKED: USER    (1) Final Intermolecular Energy     =  -15.22 kcal/mol
DOCKED: USER        vdW + Hbond + desolv Energy     =  -15.22 kcal/mol
DOCKED: USER        Electrostatic Energy            =   +0.00 kcal/mol
DOCKED: USER    (2) Final Total Internal Energy     =   -1.44 kcal/mol
DOCKED: USER    (3) Torsional Free Energy           =   +2.68 kcal/mol
DOCKED: USER    (4) Unbound System's Energy  [=(2)] =   -1.44 kcal/mol
DOCKED: USER    
DOCKED: USER    
DOCKED: USER    NEWDPF move ligand.dum.pdbqt
DOCKED: USER    NEWDPF about 1.619000 0.086000 0.013000
DOCKED: USER    NEWDPF tran0 36.597785 17.080697 120.676018
DOCKED: USER    NEWDPF quaternion0 -0.878891 0.175045 -0.397915 0.196403
DOCKED: USER    NEWDPF axisangle0 -0.896349 0.178522 -0.405819 157.346581
DOCKED: USER    NEWDPF quat0 -0.896349 0.178522 -0.405819 157.346581
DOCKED: USER    NEWDPF dihe0 -180.00 -62.98 180.00 163.43 -176.43 -81.75 -21.12 93.82 -166.99 
DOCKED: USER  keepresnum = 1 
DOCKED: USER  
DOCKED: REMARK  Name = 
DOCKED: REMARK  11 active torsions:
DOCKED: REMARK  status: ('A' for Active; 'I' for Inactive)
DOCKED: REMARK    1  A    between atoms: C_2  and  O_3
DOCKED: REMARK    2  A    between atoms: O_3  and  C_4
DOCKED: REMARK    3  A    between atoms: C_4  and  C_5
DOCKED: REMARK    4  A    between atoms: C_10  and  C_11
DOCKED: REMARK    5  A    between atoms: C_11  and  N_12
DOCKED: REMARK    6  A    between atoms: N_12  and  C_13
DOCKED: REMARK    7  A    between atoms: N_12  and  C_15
DOCKED: REMARK    8  A    between atoms: C_13  and  C_14
DOCKED: REMARK    9  A    between atoms: C_15  and  C_16
DOCKED: REMARK   10  A    between atoms: N_21  and  C_22
DOCKED: REMARK   11  A    between atoms: C_25  and  C_26
DOCKED: REMARK                            x       y       z     vdW  Elec       q    Type
DOCKED: REMARK                         _______ _______ _______ _____ _____    ______ ____
DOCKED: USER                              x       y       z     vdW  Elec       q    Type
DOCKED: USER                           _______ _______ _______ _____ _____    ______ ____
DOCKED: ROOT
DOCKED: ATOM      1  C   UNL     1      35.492  18.444 122.306 -0.27 -0.00    +0.000 C 
DOCKED: ENDROOT
DOCKED: BRANCH   1   2
DOCKED: ATOM      2  C   UNL     1      34.644  18.506 121.068 -0.26 -0.00    +0.000 A 
DOCKED: ATOM      3  C   UNL     1      35.202  18.885 119.838 -0.19 -0.00    +0.000 A 
DOCKED: ATOM      4  C   UNL     1      34.404  18.958 118.692 -0.18 -0.00    +0.000 A 
DOCKED: ATOM      5  C   UNL     1      33.034  18.669 118.765 -0.25 -0.00    +0.000 A 
DOCKED: ATOM      6  C   UNL     1      32.224  18.750 117.622 -0.16 -0.00    +0.000 A 
DOCKED: ATOM      7  C   UNL     1      30.846  18.493 117.707 -0.20 -0.00    +0.000 A 
DOCKED: ATOM      8  C   UNL     1      30.290  18.112 118.938 -0.38 -0.00    +0.000 A 
DOCKED: ATOM      9  C   UNL     1      31.091  18.021 120.081 -0.23 -0.00    +0.000 A 
DOCKED: ATOM     10  C   UNL     1      32.462  18.302 120.006 -0.38 -0.00    +0.000 A 
DOCKED: ATOM     11  C   UNL     1      33.272  18.222 121.150 -0.25 -0.00    +0.000 A 
DOCKED: ATOM     12  CM  UNL     1      33.837  18.590 119.920 +0.00 -0.00    +0.000 AC
DOCKED: ATOM     13  CM  UNL     1      31.657  18.391 118.853 +0.00 -0.00    +0.000 AC
DOCKED: BRANCH   7  12
DOCKED: ATOM     14  C   UNL     1      29.985  18.571 116.472 -0.12 -0.00    +0.000 C 
DOCKED: BRANCH  12  13
DOCKED: ATOM     15  N   UNL     1      29.104  17.387 116.364 -0.16 -0.00    +0.000 N 
DOCKED: ATOM     16  H   UNL     1      28.977  17.305 115.355 +0.00 -0.00    +0.000 HD
DOCKED: BRANCH  13  15
DOCKED: ATOM     17  C   UNL     1      29.743  16.115 116.762 -0.33 -0.00    +0.000 C 
DOCKED: ATOM     18  C   UNL     1      30.053  15.186 115.586 -0.34 -0.00    +0.000 C 
DOCKED: ENDBRANCH  13  15
DOCKED: BRANCH  13  17
DOCKED: ATOM     19  C   UNL     1      27.698  17.554 116.813 -0.24 -0.00    +0.000 C 
DOCKED: ATOM     20  C   UNL     1      27.375  16.917 118.172 -0.34 -0.00    +0.000 C 
DOCKED: ENDBRANCH  13  17
DOCKED: ENDBRANCH  12  13
DOCKED: ENDBRANCH   7  12
DOCKED: ENDBRANCH   1   2
DOCKED: BRANCH   1  19
DOCKED: ATOM     21  O   UNL     1      36.555  17.520 122.100 -0.19 -0.00    +0.000 OA
DOCKED: BRANCH  19  21
DOCKED: ATOM     22  O   UNL     1      35.535  15.741 123.155 -0.43 -0.00    +0.000 OA
DOCKED: ATOM     23  C   UNL     1      36.436  16.155 122.374 -0.30 -0.00    +0.000 C 
DOCKED: ATOM     24  N   UNL     1      37.378  15.243 121.794 -0.26 -0.00    +0.000 N 
DOCKED: ATOM     25  H   UNL     1      38.134  15.622 121.288 +0.00 -0.00    +0.000 HD
DOCKED: BRANCH  22  24
DOCKED: ATOM     26  C   UNL     1      37.293  13.812 121.899 -0.39 -0.00    +0.000 A 
DOCKED: ATOM     27  C   UNL     1      37.466  13.026 120.751 -0.43 -0.00    +0.000 A 
DOCKED: ATOM     28  C   UNL     1      37.362  11.634 120.820 -0.42 -0.00    +0.000 A 
DOCKED: ATOM     29  C   UNL     1      37.060  11.000 122.039 -0.47 -0.00    +0.000 A 
DOCKED: ATOM     30  C   UNL     1      36.880  11.792 123.188 -0.60 -0.00    +0.000 A 
DOCKED: ATOM     31  C   UNL     1      36.985  13.184 123.117 -0.53 -0.00    +0.000 A 
DOCKED: ATOM     32  CM  UNL     1      37.174  12.408 121.970 +0.00 -0.00    +0.000 AC
DOCKED: BRANCH  27  30
DOCKED: ATOM     33  C   UNL     1      36.943   9.523 122.133 -0.64 -0.00    +0.000 C 
DOCKED: ATOM     34  N   UNL     1      37.107   8.838 123.379 -0.62 -0.00    +0.000 N 
DOCKED: ATOM     35  O   UNL     1      36.894   7.505 123.455 -2.45 -0.00    +0.000 OA
DOCKED: ATOM     36  O   UNL     1      36.707   8.852 121.091 -2.62 -0.00    +0.000 OA
DOCKED: ATOM     37  H   UNL     1      37.376   9.339 124.182 -0.62 -0.00    +0.000 HD
DOCKED: ENDBRANCH  27  30
DOCKED: ENDBRANCH  22  24
DOCKED: ENDBRANCH  19  21
DOCKED: ENDBRANCH   1  19
DOCKED: TORSDOF 9DOCKED: TER
DOCKED: ENDMDL
________________________________________________________________________________


	BEGINNING GENETIC ALGORITHM DOCKING 2 of 100
Run: 2 Seed: 1744751239 1325604427 [ Run 2 of 100 GA/GALS ]
Beginning LAMARCKIAN GENETIC ALGORITHM (LGA), with a maximum of 2500000 energy evaluations.

Final-Value: -17.146


	FINAL GENETIC ALGORITHM DOCKED STATE
	_______________________________________________


Detailed state:  trans 37.434 16.608 123.438 quatxyzw 0.403676 0.449341 -0.107854 -0.789624 center 1.619 0.086 0.013 ntor 9 30.8847 176.4132 -24.6336 -159.6551 150.2460 -159.6419 -120.0997 -123.6374 156.2474
State:	 37.434  16.608 123.438   0.658  0.732 -0.176 -75.699     30.88  176.41  -24.63 -159.66  150.25 -159.64 -120.10 -123.64  156.25

DOCKED: MODEL        2
DOCKED: USER    Run = 2
DOCKED: USER    DPF = ligand_dock.biased.dpf
DOCKED: USER  
DOCKED: USER    Estimated Free Energy of Binding    =  -12.69 kcal/mol  [=(1)+(2)+(3)-(4)]
DOCKED: USER    Estimated Inhibition Constant, Ki   =  495.93 pM (picomolar)  [Temperature = 298.15 K]
DOCKED: USER    
DOCKED: USER    (1) Final Intermolecular Energy     =  -15.38 kcal/mol
DOCKED: USER        vdW + Hbond + desolv Energy     =  -15.38 kcal/mol
DOCKED: USER        Electrostatic Energy            =   +0.00 kcal/mol
DOCKED: USER    (2) Final Total Internal Energy     =   -1.77 kcal/mol
DOCKED: USER    (3) Torsional Free Energy           =   +2.68 kcal/mol
DOCKED: USER    (4) Unbound System's Energy  [=(2)] =   -1.77 kcal/mol
DOCKED: USER    
DOCKED: USER    
DOCKED: USER    NEWDPF move ligand.dum.pdbqt
DOCKED: USER    NEWDPF about 1.619000 0.086000 0.013000
DOCKED: USER    NEWDPF tran0 37.433639 16.607691 123.438430
DOCKED: USER    NEWDPF quaternion0 0.403676 0.449341 -0.107854 -0.789624
DOCKED: USER    NEWDPF axisangle0 0.657891 0.732313 -0.175775 -75.699286
DOCKED: USER    NEWDPF quat0 0.657891 0.732313 -0.175775 -75.699286
DOCKED: USER    NEWDPF dihe0 30.88 176.41 -24.63 -159.66 150.25 -159.64 -120.10 -123.64 156.25 
DOCKED: USER  keepresnum = 1 
DOCKED: USER  
DOCKED: REMARK  Name = 
DOCKED: REMARK  11 active torsions:
DOCKED: REMARK  status: ('A' for Active; 'I' for Inactive)
DOCKED: REMARK    1  A    between atoms: C_2  and  O_3
DOCKED: REMARK    2  A    between atoms: O_3  and  C_4
DOCKED: REMARK    3  A    between atoms: C_4  and  C_5
DOCKED: REMARK    4  A    between atoms: C_10  and  C_11
DOCKED: REMARK    5  A    between atoms: C_11  and  N_12
DOCKED: REMARK    6  A    between atoms: N_12  and  C_13
DOCKED: REMARK    7  A    between atoms: N_12  and  C_15
DOCKED: REMARK    8  A    between atoms: C_13  and  C_14
DOCKED: REMARK    9  A    between atoms: C_15  and  C_16
DOCKED: REMARK   10  A    between atoms: N_21  and  C_22
DOCKED: REMARK   11  A    between atoms: C_25  and  C_26
DOCKED: REMARK                            x       y       z     vdW  Elec       q    Type
DOCKED: REMARK                         _______ _______ _______ _____ _____    ______ ____
DOCKED: USER                              x       y       z     vdW  Elec       q    Type
DOCKED: USER                           _______ _______ _______ _____ _____    ______ ____
DOCKED: ROOT
DOCKED: ATOM      1  C   UNL     1      36.004  18.187 122.343 -0.23 -0.00    +0.000 C 
DOCKED: ENDROOT
DOCKED: BRANCH   1   2
DOCKED: ATOM      2  C   UNL     1      35.312  17.820 123.624 -0.29 -0.00    +0.000 A 
DOCKED: ATOM      3  C   UNL     1      34.405  16.752 123.665 -0.42 -0.00    +0.000 A 
DOCKED: ATOM      4  C   UNL     1      33.749  16.425 124.857 -0.13 -0.00    +0.000 A 
DOCKED: ATOM      5  C   UNL     1      33.983  17.173 126.019 -0.37 -0.00    +0.000 A 
DOCKED: ATOM      6  C   UNL     1      33.323  16.859 127.217 -0.40 -0.00    +0.000 A 
DOCKED: ATOM      7  C   UNL     1      33.533  17.632 128.370 -0.24 -0.00    +0.000 A 
DOCKED: ATOM      8  C   UNL     1      34.444  18.700 128.328 -0.13 -0.00    +0.000 A 
DOCKED: ATOM      9  C   UNL     1      35.113  19.015 127.141 -0.15 -0.00    +0.000 A 
DOCKED: ATOM     10  C   UNL     1      34.886  18.262 125.981 -0.25 -0.00    +0.000 A 
DOCKED: ATOM     11  C   UNL     1      35.546  18.577 124.783 -0.23 -0.00    +0.000 A 
DOCKED: ATOM     12  CM  UNL     1      34.647  17.501 124.821 -0.42 -0.00    +0.000 AC
DOCKED: ATOM     13  CM  UNL     1      34.214  17.941 127.176 -0.02 -0.00    +0.000 AC
DOCKED: BRANCH   7  12
DOCKED: ATOM     14  C   UNL     1      32.829  17.281 129.656 -0.28 -0.00    +0.000 C 
DOCKED: BRANCH  12  13
DOCKED: ATOM     15  N   UNL     1      33.721  16.522 130.559 -0.24 -0.00    +0.000 N 
DOCKED: ATOM     16  H   UNL     1      33.260  15.612 130.601 -0.44 -0.00    +0.000 HD
DOCKED: BRANCH  13  15
DOCKED: ATOM     17  C   UNL     1      35.057  16.236 129.995 -0.09 -0.00    +0.000 C 
DOCKED: ATOM     18  C   UNL     1      36.165  17.137 130.546 -0.19 -0.00    +0.000 C 
DOCKED: ENDBRANCH  13  15
DOCKED: BRANCH  13  17
DOCKED: ATOM     19  C   UNL     1      33.712  16.911 131.993 -0.22 -0.00    +0.000 C 
DOCKED: ATOM     20  C   UNL     1      33.651  15.736 132.979 -0.20 -0.00    +0.000 C 
DOCKED: ENDBRANCH  13  17
DOCKED: ENDBRANCH  12  13
DOCKED: ENDBRANCH   7  12
DOCKED: ENDBRANCH   1   2
DOCKED: BRANCH   1  19
DOCKED: ATOM     21  O   UNL     1      37.285  17.567 122.307 -0.16 -0.00    +0.000 OA
DOCKED: BRANCH  19  21
DOCKED: ATOM     22  O   UNL     1      38.159  15.756 123.436 -0.37 -0.00    +0.000 OA
DOCKED: ATOM     23  C   UNL     1      37.465  16.192 122.477 -0.27 -0.00    +0.000 C 
DOCKED: ATOM     24  N   UNL     1      36.891  15.291 121.519 -0.24 -0.00    +0.000 N 
DOCKED: ATOM     25  H   UNL     1      36.460  15.680 120.723 -0.01 -0.00    +0.000 HD
DOCKED: BRANCH  22  24
DOCKED: ATOM     26  C   UNL     1      36.902  13.859 121.645 -0.27 -0.00    +0.000 A 
DOCKED: ATOM     27  C   UNL     1      36.372  13.266 122.800 -0.46 -0.00    +0.000 A 
DOCKED: ATOM     28  C   UNL     1      36.393  11.878 122.960 -0.60 -0.00    +0.000 A 
DOCKED: ATOM     29  C   UNL     1      36.967  11.054 121.974 -0.49 -0.00    +0.000 A 
DOCKED: ATOM     30  C   UNL     1      37.503  11.652 120.820 -0.38 -0.00    +0.000 A 
DOCKED: ATOM     31  C   UNL     1      37.481  13.041 120.662 -0.43 -0.00    +0.000 A 
DOCKED: ATOM     32  CM  UNL     1      36.937  12.458 121.810 +0.00 -0.00    +0.000 AC
DOCKED: BRANCH  27  30
DOCKED: ATOM     33  C   UNL     1      37.001   9.578 122.127 -0.62 -0.00    +0.000 C 
DOCKED: ATOM     34  N   UNL     1      37.423   8.963 123.349 -0.49 -0.00    +0.000 N 
DOCKED: ATOM     35  O   UNL     1      37.347   7.621 123.497 -2.53 -0.00    +0.000 OA
DOCKED: ATOM     36  O   UNL     1      36.664   8.845 121.157 -2.58 -0.00    +0.000 OA
DOCKED: ATOM     37  H   UNL     1      37.771   9.519 124.083 -0.53 -0.00    +0.000 HD
DOCKED: ENDBRANCH  27  30
DOCKED: ENDBRANCH  22  24
DOCKED: ENDBRANCH  19  21
DOCKED: ENDBRANCH   1  19
DOCKED: TORSDOF 9DOCKED: TER
DOCKED: ENDMDL
________________________________________________________________________________


	BEGINNING GENETIC ALGORITHM DOCKING 3 of 100
Run: 3 Seed: 1243282443 582424580 [ Run 3 of 100 GA/GALS ]
Beginning LAMARCKIAN GENETIC ALGORITHM (LGA), with a maximum of 2500000 energy evaluations.

Final-Value: -16.708


	FINAL GENETIC ALGORITHM DOCKED STATE
	_______________________________________________


Detailed state:  trans 35.564 16.443 122.616 quatxyzw 0.053685 -0.897771 0.433954 -0.052996 center 1.619 0.086 0.013 ntor 9 117.0872 -18.9978 -179.7438 31.9906 150.1215 -87.9407 111.3218 -110.0525 109.8332
State:	 35.564  16.443 122.616   0.054 -0.899  0.435 -173.924    117.09  -19.00 -179.74   31.99  150.12  -87.94  111.32 -110.05  109.83

DOCKED: MODEL        3
DOCKED: USER    Run = 3
DOCKED: USER    DPF = ligand_dock.biased.dpf
DOCKED: USER  
DOCKED: USER    Estimated Free Energy of Binding    =  -12.15 kcal/mol  [=(1)+(2)+(3)-(4)]
DOCKED: USER    Estimated Inhibition Constant, Ki   =    1.24 nM (nanomolar)  [Temperature = 298.15 K]
DOCKED: USER    
DOCKED: USER    (1) Final Intermolecular Energy     =  -14.83 kcal/mol
DOCKED: USER        vdW + Hbond + desolv Energy     =  -14.83 kcal/mol
DOCKED: USER        Electrostatic Energy            =   +0.00 kcal/mol
DOCKED: USER    (2) Final Total Internal Energy     =   -1.88 kcal/mol
DOCKED: USER    (3) Torsional Free Energy           =   +2.68 kcal/mol
DOCKED: USER    (4) Unbound System's Energy  [=(2)] =   -1.88 kcal/mol
DOCKED: USER    
DOCKED: USER    
DOCKED: USER    NEWDPF move ligand.dum.pdbqt
DOCKED: USER    NEWDPF about 1.619000 0.086000 0.013000
DOCKED: USER    NEWDPF tran0 35.564305 16.443013 122.616043
DOCKED: USER    NEWDPF quaternion0 0.053685 -0.897771 0.433954 -0.052996
DOCKED: USER    NEWDPF axisangle0 0.053760 -0.899035 0.434565 -173.924241
DOCKED: USER    NEWDPF quat0 0.053760 -0.899035 0.434565 -173.924241
DOCKED: USER    NEWDPF dihe0 117.09 -19.00 -179.74 31.99 150.12 -87.94 111.32 -110.05 109.83 
DOCKED: USER  keepresnum = 1 
DOCKED: USER  
DOCKED: REMARK  Name = 
DOCKED: REMARK  11 active torsions:
DOCKED: REMARK  status: ('A' for Active; 'I' for Inactive)
DOCKED: REMARK    1  A    between atoms: C_2  and  O_3
DOCKED: REMARK    2  A    between atoms: O_3  and  C_4
DOCKED: REMARK    3  A    between atoms: C_4  and  C_5
DOCKED: REMARK    4  A    between atoms: C_10  and  C_11
DOCKED: REMARK    5  A    between atoms: C_11  and  N_12
DOCKED: REMARK    6  A    between atoms: N_12  and  C_13
DOCKED: REMARK    7  A    between atoms: N_12  and  C_15
DOCKED: REMARK    8  A    between atoms: C_13  and  C_14
DOCKED: REMARK    9  A    between atoms: C_15  and  C_16
DOCKED: REMARK   10  A    between atoms: N_21  and  C_22
DOCKED: REMARK   11  A    between atoms: C_25  and  C_26
DOCKED: REMARK                            x       y       z     vdW  Elec       q    Type
DOCKED: REMARK                         _______ _______ _______ _____ _____    ______ ____
DOCKED: USER                              x       y       z     vdW  Elec       q    Type
DOCKED: USER                           _______ _______ _______ _____ _____    ______ ____
DOCKED: ROOT
DOCKED: ATOM      1  C   UNL     1      35.371  18.065 124.368 -0.31 -0.00    +0.000 C 
DOCKED: ENDROOT
DOCKED: BRANCH   1   2
DOCKED: ATOM      2  C   UNL     1      36.821  18.047 123.977 -0.19 -0.00    +0.000 A 
DOCKED: ATOM      3  C   UNL     1      37.825  18.075 124.956 -0.06 -0.00    +0.000 A 
DOCKED: ATOM      4  C   UNL     1      39.174  18.076 124.587 -0.20 -0.00    +0.000 A 
DOCKED: ATOM      5  C   UNL     1      39.535  18.065 123.232 -0.16 -0.00    +0.000 A 
DOCKED: ATOM      6  C   UNL     1      40.885  18.076 122.852 -0.17 -0.00    +0.000 A 
DOCKED: ATOM      7  C   UNL     1      41.243  18.100 121.494 -0.08 -0.00    +0.000 A 
DOCKED: ATOM      8  C   UNL     1      40.236  18.069 120.516 -0.05 -0.00    +0.000 A 
DOCKED: ATOM      9  C   UNL     1      38.888  18.050 120.885 -0.05 -0.00    +0.000 A 
DOCKED: ATOM     10  C   UNL     1      38.526  18.052 122.240 -0.09 -0.00    +0.000 A 
DOCKED: ATOM     11  C   UNL     1      37.176  18.042 122.619 -0.14 -0.00    +0.000 A 
DOCKED: ATOM     12  CM  UNL     1      38.176  18.059 123.602 +0.00 -0.00    +0.000 AC
DOCKED: ATOM     13  CM  UNL     1      39.886  18.069 121.869 +0.00 -0.00    +0.000 AC
DOCKED: BRANCH   7  12
DOCKED: ATOM     14  C   UNL     1      42.696  18.100 121.094 -0.11 -0.00    +0.000 C 
DOCKED: BRANCH  12  13
DOCKED: ATOM     15  N   UNL     1      43.142  16.741 120.716 -0.19 -0.00    +0.000 N 
DOCKED: ATOM     16  H   UNL     1      42.749  16.639 119.780 +0.00 -0.00    +0.000 HD
DOCKED: BRANCH  13  15
DOCKED: ATOM     17  C   UNL     1      44.602  16.611 120.522 -0.22 -0.00    +0.000 C 
DOCKED: ATOM     18  C   UNL     1      45.026  15.271 119.917 -0.36 +0.00    +0.000 C 
DOCKED: ENDBRANCH  13  15
DOCKED: BRANCH  13  17
DOCKED: ATOM     19  C   UNL     1      42.496  15.603 121.420 -0.33 -0.00    +0.000 C 
DOCKED: ATOM     20  C   UNL     1      42.691  15.592 122.943 -0.34 +0.00    +0.000 C 
DOCKED: ENDBRANCH  13  17
DOCKED: ENDBRANCH  12  13
DOCKED: ENDBRANCH   7  12
DOCKED: ENDBRANCH   1   2
DOCKED: BRANCH   1  19
DOCKED: ATOM     21  O   UNL     1      34.638  17.218 123.490 -0.42 -0.00    +0.000 OA
DOCKED: BRANCH  19  21
DOCKED: ATOM     22  O   UNL     1      33.849  15.082 123.862 -0.70 -0.00    +0.000 OA
DOCKED: ATOM     23  C   UNL     1      34.791  15.828 123.476 -0.50 -0.00    +0.000 C 
DOCKED: ATOM     24  N   UNL     1      36.046  15.270 123.063 -0.39 -0.00    +0.000 N 
DOCKED: ATOM     25  H   UNL     1      36.789  15.891 122.886 -0.00 -0.00    +0.000 HD
DOCKED: BRANCH  22  24
DOCKED: ATOM     26  C   UNL     1      36.290  13.864 122.891 -0.40 -0.00    +0.000 A 
DOCKED: ATOM     27  C   UNL     1      36.824  13.403 121.679 -0.32 -0.00    +0.000 A 
DOCKED: ATOM     28  C   UNL     1      37.047  12.039 121.474 -0.49 -0.00    +0.000 A 
DOCKED: ATOM     29  C   UNL     1      36.719  11.104 122.473 -0.57 -0.00    +0.000 A 
DOCKED: ATOM     30  C   UNL     1      36.178  11.568 123.685 -0.61 -0.00    +0.000 A 
DOCKED: ATOM     31  C   UNL     1      35.956  12.933 123.888 -0.50 -0.00    +0.000 A 
DOCKED: ATOM     32  CM  UNL     1      36.502  12.485 122.682 +0.00 -0.00    +0.000 AC
DOCKED: BRANCH  27  30
DOCKED: ATOM     33  C   UNL     1      36.947   9.650 122.273 -0.63 -0.00    +0.000 C 
DOCKED: ATOM     34  N   UNL     1      37.069   8.754 123.383 -0.64 -0.00    +0.000 N 
DOCKED: ATOM     35  O   UNL     1      37.172   7.421 123.173 -2.34 -0.00    +0.000 OA
DOCKED: ATOM     36  O   UNL     1      37.049   9.192 121.102 -2.73 -0.00    +0.000 OA
DOCKED: ATOM     37  H   UNL     1      37.078   9.108 124.301 -0.54 -0.00    +0.000 HD
DOCKED: ENDBRANCH  27  30
DOCKED: ENDBRANCH  22  24
DOCKED: ENDBRANCH  19  21
DOCKED: ENDBRANCH   1  19
DOCKED: TORSDOF 9DOCKED: TER
DOCKED: ENDMDL
________________________________________________________________________________


	BEGINNING GENETIC ALGORITHM DOCKING 4 of 100
Run: 4 Seed: 572102097 2044158937 [ Run 4 of 100 GA/GALS ]
Beginning LAMARCKIAN GENETIC ALGORITHM (LGA), with a maximum of 2500000 energy evaluations.

Final-Value: -18.114


	FINAL GENETIC ALGORITHM DOCKED STATE
	_______________________________________________


Detailed state:  trans 35.282 17.636 121.561 quatxyzw 0.868919 -0.091119 -0.465385 -0.141754 center 1.619 0.086 0.013 ntor 9 -39.2515 116.0155 179.9045 -60.1212 -176.7004 177.4479 -169.4453 89.0055 130.1037
State:	 35.282  17.636 121.561   0.878 -0.092 -0.470 -163.701    -39.25  116.02  179.90  -60.12 -176.70  177.45 -169.45   89.01  130.10

DOCKED: MODEL        4
DOCKED: USER    Run = 4
DOCKED: USER    DPF = ligand_dock.biased.dpf
DOCKED: USER  
DOCKED: USER    Estimated Free Energy of Binding    =  -13.74 kcal/mol  [=(1)+(2)+(3)-(4)]
DOCKED: USER    Estimated Inhibition Constant, Ki   =   84.95 pM (picomolar)  [Temperature = 298.15 K]
DOCKED: USER    
DOCKED: USER    (1) Final Intermolecular Energy     =  -16.42 kcal/mol
DOCKED: USER        vdW + Hbond + desolv Energy     =  -16.42 kcal/mol
DOCKED: USER        Electrostatic Energy            =   +0.00 kcal/mol
DOCKED: USER    (2) Final Total Internal Energy     =   -1.69 kcal/mol
DOCKED: USER    (3) Torsional Free Energy           =   +2.68 kcal/mol
DOCKED: USER    (4) Unbound System's Energy  [=(2)] =   -1.69 kcal/mol
DOCKED: USER    
DOCKED: USER    
DOCKED: USER    NEWDPF move ligand.dum.pdbqt
DOCKED: USER    NEWDPF about 1.619000 0.086000 0.013000
DOCKED: USER    NEWDPF tran0 35.282004 17.635805 121.561117
DOCKED: USER    NEWDPF quaternion0 0.868919 -0.091119 -0.465385 -0.141754
DOCKED: USER    NEWDPF axisangle0 0.877783 -0.092049 -0.470133 -163.701318
DOCKED: USER    NEWDPF quat0 0.877783 -0.092049 -0.470133 -163.701318
DOCKED: USER    NEWDPF dihe0 -39.25 116.02 179.90 -60.12 -176.70 177.45 -169.45 89.01 130.10 
DOCKED: USER  keepresnum = 1 
DOCKED: USER  
DOCKED: REMARK  Name = 
DOCKED: REMARK  11 active torsions:
DOCKED: REMARK  status: ('A' for Active; 'I' for Inactive)
DOCKED: REMARK    1  A    between atoms: C_2  and  O_3
DOCKED: REMARK    2  A    between atoms: O_3  and  C_4
DOCKED: REMARK    3  A    between atoms: C_4  and  C_5
DOCKED: REMARK    4  A    between atoms: C_10  and  C_11
DOCKED: REMARK    5  A    between atoms: C_11  and  N_12
DOCKED: REMARK    6  A    between atoms: N_12  and  C_13
DOCKED: REMARK    7  A    between atoms: N_12  and  C_15
DOCKED: REMARK    8  A    between atoms: C_13  and  C_14
DOCKED: REMARK    9  A    between atoms: C_15  and  C_16
DOCKED: REMARK   10  A    between atoms: N_21  and  C_22
DOCKED: REMARK   11  A    between atoms: C_25  and  C_26
DOCKED: REMARK                            x       y       z     vdW  Elec       q    Type
DOCKED: REMARK                         _______ _______ _______ _____ _____    ______ ____
DOCKED: USER                              x       y       z     vdW  Elec       q    Type
DOCKED: USER                           _______ _______ _______ _____ _____    ______ ____
DOCKED: ROOT
DOCKED: ATOM      1  C   UNL     1      37.446  18.218 122.408 -0.14 -0.00    +0.000 C 
DOCKED: ENDROOT
DOCKED: BRANCH   1   2
DOCKED: ATOM      2  C   UNL     1      36.470  18.540 123.504 -0.18 -0.00    +0.000 A 
DOCKED: ATOM      3  C   UNL     1      36.304  19.861 123.947 -0.16 -0.00    +0.000 A 
DOCKED: ATOM      4  C   UNL     1      35.407  20.153 124.980 -0.16 -0.00    +0.000 A 
DOCKED: ATOM      5  C   UNL     1      34.676  19.125 125.593 -0.22 -0.00    +0.000 A 
DOCKED: ATOM      6  C   UNL     1      33.782  19.408 126.636 -0.20 -0.00    +0.000 A 
DOCKED: ATOM      7  C   UNL     1      33.078  18.372 127.271 -0.25 -0.00    +0.000 A 
DOCKED: ATOM      8  C   UNL     1      33.243  17.051 126.824 -0.33 -0.00    +0.000 A 
DOCKED: ATOM      9  C   UNL     1      34.127  16.761 125.779 -0.37 -0.00    +0.000 A 
DOCKED: ATOM     10  C   UNL     1      34.851  17.789 125.161 -0.32 -0.00    +0.000 A 
DOCKED: ATOM     11  C   UNL     1      35.746  17.506 124.118 -0.28 -0.00    +0.000 A 
DOCKED: ATOM     12  CM  UNL     1      35.576  18.830 124.550 -0.14 -0.00    +0.000 AC
DOCKED: ATOM     13  CM  UNL     1      33.959  18.084 126.211 -0.10 -0.00    +0.000 AC
DOCKED: BRANCH   7  12
DOCKED: ATOM     14  C   UNL     1      32.110  18.685 128.383 -0.22 -0.00    +0.000 C 
DOCKED: BRANCH  12  13
DOCKED: ATOM     15  N   UNL     1      30.823  17.985 128.179 -0.35 -0.00    +0.000 N 
DOCKED: ATOM     16  H   UNL     1      30.889  17.696 127.203 -0.56 -0.00    +0.000 HD
DOCKED: BRANCH  13  15
DOCKED: ATOM     17  C   UNL     1      30.692  16.720 128.933 -0.42 -0.00    +0.000 C 
DOCKED: ATOM     18  C   UNL     1      31.413  16.730 130.283 -0.41 -0.00    +0.000 C 
DOCKED: ENDBRANCH  13  15
DOCKED: BRANCH  13  17
DOCKED: ATOM     19  C   UNL     1      29.600  18.827 128.143 -0.44 -0.00    +0.000 C 
DOCKED: ATOM     20  C   UNL     1      29.412  19.636 126.852 -0.47 -0.00    +0.000 C 
DOCKED: ENDBRANCH  13  17
DOCKED: ENDBRANCH  12  13
DOCKED: ENDBRANCH   7  12
DOCKED: ENDBRANCH   1   2
DOCKED: BRANCH   1  19
DOCKED: ATOM     21  O   UNL     1      36.755  17.586 121.336 -0.16 -0.00    +0.000 OA
DOCKED: BRANCH  19  21
DOCKED: ATOM     22  O   UNL     1      36.216  15.680 120.154 -0.13 -0.00    +0.000 OA
DOCKED: ATOM     23  C   UNL     1      36.644  16.197 121.223 -0.21 -0.00    +0.000 C 
DOCKED: ATOM     24  N   UNL     1      36.977  15.377 122.351 -0.30 -0.00    +0.000 N 
DOCKED: ATOM     25  H   UNL     1      37.192  15.828 123.200 -0.01 -0.00    +0.000 HD
DOCKED: BRANCH  22  24
DOCKED: ATOM     26  C   UNL     1      37.020  13.940 122.325 -0.41 -0.00    +0.000 A 
DOCKED: ATOM     27  C   UNL     1      37.403  13.285 121.146 -0.41 -0.00    +0.000 A 
DOCKED: ATOM     28  C   UNL     1      37.428  11.889 121.084 -0.44 -0.00    +0.000 A 
DOCKED: ATOM     29  C   UNL     1      37.048  11.118 122.198 -0.49 -0.00    +0.000 A 
DOCKED: ATOM     30  C   UNL     1      36.658  11.778 123.378 -0.62 -0.00    +0.000 A 
DOCKED: ATOM     31  C   UNL     1      36.634  13.175 123.437 -0.55 -0.00    +0.000 A 
DOCKED: ATOM     32  CM  UNL     1      37.032  12.531 122.262 +0.00 -0.00    +0.000 AC
DOCKED: BRANCH  27  30
DOCKED: ATOM     33  C   UNL     1      37.066   9.634 122.152 -0.60 -0.00    +0.000 C 
DOCKED: ATOM     34  N   UNL     1      37.151   8.851 123.347 -0.61 -0.00    +0.000 N 
DOCKED: ATOM     35  O   UNL     1      37.062   7.503 123.284 -2.48 -0.00    +0.000 OA
DOCKED: ATOM     36  O   UNL     1      37.019   9.047 121.037 -2.71 -0.00    +0.000 OA
DOCKED: ATOM     37  H   UNL     1      37.276   9.295 124.217 -0.61 -0.00    +0.000 HD
DOCKED: ENDBRANCH  27  30
DOCKED: ENDBRANCH  22  24
DOCKED: ENDBRANCH  19  21
DOCKED: ENDBRANCH   1  19
DOCKED: TORSDOF 9DOCKED: TER
DOCKED: ENDMDL
________________________________________________________________________________


	BEGINNING GENETIC ALGORITHM DOCKING 5 of 100
Run: 5 Seed: 42308675 2055199658 [ Run 5 of 100 GA/GALS ]
Beginning LAMARCKIAN GENETIC ALGORITHM (LGA), with a maximum of 2500000 energy evaluations.

Final-Value: -16.472


	FINAL GENETIC ALGORITHM DOCKED STATE
	_______________________________________________


Detailed state:  trans 37.386 17.197 121.654 quatxyzw -0.061534 0.962111 -0.263285 0.035181 center 1.619 0.086 0.013 ntor 9 -65.3503 -96.3053 155.6656 61.5535 -56.3491 -176.6645 -154.3898 -97.1904 -7.9700
State:	 37.386  17.197 121.654  -0.062  0.963 -0.263 175.968    -65.35  -96.31  155.67   61.55  -56.35 -176.66 -154.39  -97.19   -7.97

DOCKED: MODEL        5
DOCKED: USER    Run = 5
DOCKED: USER    DPF = ligand_dock.biased.dpf
DOCKED: USER  
DOCKED: USER    Estimated Free Energy of Binding    =  -12.06 kcal/mol  [=(1)+(2)+(3)-(4)]
DOCKED: USER    Estimated Inhibition Constant, Ki   =    1.45 nM (nanomolar)  [Temperature = 298.15 K]
DOCKED: USER    
DOCKED: USER    (1) Final Intermolecular Energy     =  -14.74 kcal/mol
DOCKED: USER        vdW + Hbond + desolv Energy     =  -14.74 kcal/mol
DOCKED: USER        Electrostatic Energy            =   +0.00 kcal/mol
DOCKED: USER    (2) Final Total Internal Energy     =   -1.73 kcal/mol
DOCKED: USER    (3) Torsional Free Energy           =   +2.68 kcal/mol
DOCKED: USER    (4) Unbound System's Energy  [=(2)] =   -1.73 kcal/mol
DOCKED: USER    
DOCKED: USER    
DOCKED: USER    NEWDPF move ligand.dum.pdbqt
DOCKED: USER    NEWDPF about 1.619000 0.086000 0.013000
DOCKED: USER    NEWDPF tran0 37.385738 17.196878 121.653994
DOCKED: USER    NEWDPF quaternion0 -0.061534 0.962111 -0.263285 0.035181
DOCKED: USER    NEWDPF axisangle0 -0.061572 0.962707 -0.263448 175.967721
DOCKED: USER    NEWDPF quat0 -0.061572 0.962707 -0.263448 175.967721
DOCKED: USER    NEWDPF dihe0 -65.35 -96.31 155.67 61.55 -56.35 -176.66 -154.39 -97.19 -7.97 
DOCKED: USER  keepresnum = 1 
DOCKED: USER  
DOCKED: REMARK  Name = 
DOCKED: REMARK  11 active torsions:
DOCKED: REMARK  status: ('A' for Active; 'I' for Inactive)
DOCKED: REMARK    1  A    between atoms: C_2  and  O_3
DOCKED: REMARK    2  A    between atoms: O_3  and  C_4
DOCKED: REMARK    3  A    between atoms: C_4  and  C_5
DOCKED: REMARK    4  A    between atoms: C_10  and  C_11
DOCKED: REMARK    5  A    between atoms: C_11  and  N_12
DOCKED: REMARK    6  A    between atoms: N_12  and  C_13
DOCKED: REMARK    7  A    between atoms: N_12  and  C_15
DOCKED: REMARK    8  A    between atoms: C_13  and  C_14
DOCKED: REMARK    9  A    between atoms: C_15  and  C_16
DOCKED: REMARK   10  A    between atoms: N_21  and  C_22
DOCKED: REMARK   11  A    between atoms: C_25  and  C_26
DOCKED: REMARK                            x       y       z     vdW  Elec       q    Type
DOCKED: REMARK                         _______ _______ _______ _____ _____    ______ ____
DOCKED: USER                              x       y       z     vdW  Elec       q    Type
DOCKED: USER                           _______ _______ _______ _____ _____    ______ ____
DOCKED: ROOT
DOCKED: ATOM      1  C   UNL     1      37.159  18.081 123.869 -0.21 -0.00    +0.000 C 
DOCKED: ENDROOT
DOCKED: BRANCH   1   2
DOCKED: ATOM      2  C   UNL     1      38.614  18.208 123.518 -0.15 -0.00    +0.000 A 
DOCKED: ATOM      3  C   UNL     1      39.163  19.456 123.188 -0.06 -0.00    +0.000 A 
DOCKED: ATOM      4  C   UNL     1      40.514  19.566 122.845 -0.06 -0.00    +0.000 A 
DOCKED: ATOM      5  C   UNL     1      41.330  18.426 122.814 -0.15 -0.00    +0.000 A 
DOCKED: ATOM      6  C   UNL     1      42.684  18.526 122.461 -0.15 -0.00    +0.000 A 
DOCKED: ATOM      7  C   UNL     1      43.490  17.377 122.398 -0.28 -0.00    +0.000 A 
DOCKED: ATOM      8  C   UNL     1      42.939  16.129 122.732 -0.37 -0.00    +0.000 A 
DOCKED: ATOM      9  C   UNL     1      41.592  16.022 123.092 -0.38 -0.00    +0.000 A 
DOCKED: ATOM     10  C   UNL     1      40.778  17.162 123.131 -0.27 -0.00    +0.000 A 
DOCKED: ATOM     11  C   UNL     1      39.424  17.062 123.483 -0.21 -0.00    +0.000 A 
DOCKED: ATOM     12  CM  UNL     1      39.970  18.314 123.163 +0.00 -0.00    +0.000 AC
DOCKED: ATOM     13  CM  UNL     1      42.136  17.273 122.771 +0.00 -0.00    +0.000 AC
DOCKED: BRANCH   7  12
DOCKED: ATOM     14  C   UNL     1      44.947  17.494 122.029 -0.27 -0.00    +0.000 C 
DOCKED: BRANCH  12  13
DOCKED: ATOM     15  N   UNL     1      45.191  16.980 120.664 -0.17 -0.00    +0.000 N 
DOCKED: ATOM     16  H   UNL     1      45.345  17.840 120.136 +0.00 -0.00    +0.000 HD
DOCKED: BRANCH  13  15
DOCKED: ATOM     17  C   UNL     1      46.452  16.223 120.515 -0.25 +0.00    +0.000 C 
DOCKED: ATOM     18  C   UNL     1      47.181  15.974 121.838 -0.26 +0.00    +0.000 C 
DOCKED: ENDBRANCH  13  15
DOCKED: BRANCH  13  17
DOCKED: ATOM     19  C   UNL     1      44.024  16.410 119.943 -0.22 -0.00    +0.000 C 
DOCKED: ATOM     20  C   UNL     1      44.314  15.117 119.167 -0.35 -0.00    +0.000 C 
DOCKED: ENDBRANCH  13  17
DOCKED: ENDBRANCH  12  13
DOCKED: ENDBRANCH   7  12
DOCKED: ENDBRANCH   1   2
DOCKED: BRANCH   1  19
DOCKED: ATOM     21  O   UNL     1      36.443  17.604 122.735 -0.21 -0.00    +0.000 OA
DOCKED: BRANCH  19  21
DOCKED: ATOM     22  O   UNL     1      36.215  15.918 121.177 -0.21 -0.00    +0.000 OA
DOCKED: ATOM     23  C   UNL     1      36.401  16.253 122.380 -0.29 -0.00    +0.000 C 
DOCKED: ATOM     24  N   UNL     1      36.526  15.259 123.406 -0.40 -0.00    +0.000 N 
DOCKED: ATOM     25  H   UNL     1      36.550  15.565 124.342 -0.04 -0.00    +0.000 HD
DOCKED: BRANCH  22  24
DOCKED: ATOM     26  C   UNL     1      36.619  13.846 123.160 -0.48 -0.00    +0.000 A 
DOCKED: ATOM     27  C   UNL     1      37.359  13.386 122.061 -0.44 -0.00    +0.000 A 
DOCKED: ATOM     28  C   UNL     1      37.445  12.020 121.782 -0.39 -0.00    +0.000 A 
DOCKED: ATOM     29  C   UNL     1      36.771  11.084 122.588 -0.57 -0.00    +0.000 A 
DOCKED: ATOM     30  C   UNL     1      36.023  11.547 123.686 -0.59 -0.00    +0.000 A 
DOCKED: ATOM     31  C   UNL     1      35.939  12.915 123.962 -0.45 -0.00    +0.000 A 
DOCKED: ATOM     32  CM  UNL     1      36.692  12.466 122.873 +0.00 -0.00    +0.000 AC
DOCKED: BRANCH  27  30
DOCKED: ATOM     33  C   UNL     1      36.847   9.628 122.307 -0.66 -0.00    +0.000 C 
DOCKED: ATOM     34  N   UNL     1      37.104   8.679 123.348 -0.65 -0.00    +0.000 N 
DOCKED: ATOM     35  O   UNL     1      37.067   7.353 123.084 -2.33 -0.00    +0.000 OA
DOCKED: ATOM     36  O   UNL     1      36.697   9.214 121.125 -2.62 -0.00    +0.000 OA
DOCKED: ATOM     37  H   UNL     1      37.310   8.993 124.258 -0.59 -0.00    +0.000 HD
DOCKED: ENDBRANCH  27  30
DOCKED: ENDBRANCH  22  24
DOCKED: ENDBRANCH  19  21
DOCKED: ENDBRANCH   1  19
DOCKED: TORSDOF 9DOCKED: TER
DOCKED: ENDMDL
________________________________________________________________________________


	BEGINNING GENETIC ALGORITHM DOCKING 6 of 100
Run: 6 Seed: 114212903 1540352154 [ Run 6 of 100 GA/GALS ]
Beginning LAMARCKIAN GENETIC ALGORITHM (LGA), with a maximum of 2500000 energy evaluations.

Final-Value: -15.821


	FINAL GENETIC ALGORITHM DOCKED STATE
	_______________________________________________


Detailed state:  trans 37.346 16.595 121.176 quatxyzw -0.017397 -0.903982 0.391219 -0.171643 center 1.619 0.086 0.013 ntor 9 92.5202 -29.3757 171.5970 179.7838 167.1067 159.7451 -124.8323 -121.4763 -77.2740
State:	 37.346  16.595 121.176  -0.018 -0.918  0.397 -160.233     92.52  -29.38  171.60  179.78  167.11  159.75 -124.83 -121.48  -77.27

DOCKED: MODEL        6
DOCKED: USER    Run = 6
DOCKED: USER    DPF = ligand_dock.biased.dpf
DOCKED: USER  
DOCKED: USER    Estimated Free Energy of Binding    =  -11.63 kcal/mol  [=(1)+(2)+(3)-(4)]
DOCKED: USER    Estimated Inhibition Constant, Ki   =    2.98 nM (nanomolar)  [Temperature = 298.15 K]
DOCKED: USER    
DOCKED: USER    (1) Final Intermolecular Energy     =  -14.32 kcal/mol
DOCKED: USER        vdW + Hbond + desolv Energy     =  -14.32 kcal/mol
DOCKED: USER        Electrostatic Energy            =   +0.00 kcal/mol
DOCKED: USER    (2) Final Total Internal Energy     =   -1.50 kcal/mol
DOCKED: USER    (3) Torsional Free Energy           =   +2.68 kcal/mol
DOCKED: USER    (4) Unbound System's Energy  [=(2)] =   -1.50 kcal/mol
DOCKED: USER    
DOCKED: USER    
DOCKED: USER    NEWDPF move ligand.dum.pdbqt
DOCKED: USER    NEWDPF about 1.619000 0.086000 0.013000
DOCKED: USER    NEWDPF tran0 37.346115 16.595122 121.175944
DOCKED: USER    NEWDPF quaternion0 -0.017397 -0.903982 0.391219 -0.171643
DOCKED: USER    NEWDPF axisangle0 -0.017659 -0.917600 0.397112 -160.233237
DOCKED: USER    NEWDPF quat0 -0.017659 -0.917600 0.397112 -160.233237
DOCKED: USER    NEWDPF dihe0 92.52 -29.38 171.60 179.78 167.11 159.75 -124.83 -121.48 -77.27 
DOCKED: USER  keepresnum = 1 
DOCKED: USER  
DOCKED: REMARK  Name = 
DOCKED: REMARK  11 active torsions:
DOCKED: REMARK  status: ('A' for Active; 'I' for Inactive)
DOCKED: REMARK    1  A    between atoms: C_2  and  O_3
DOCKED: REMARK    2  A    between atoms: O_3  and  C_4
DOCKED: REMARK    3  A    between atoms: C_4  and  C_5
DOCKED: REMARK    4  A    between atoms: C_10  and  C_11
DOCKED: REMARK    5  A    between atoms: C_11  and  N_12
DOCKED: REMARK    6  A    between atoms: N_12  and  C_13
DOCKED: REMARK    7  A    between atoms: N_12  and  C_15
DOCKED: REMARK    8  A    between atoms: C_13  and  C_14
DOCKED: REMARK    9  A    between atoms: C_15  and  C_16
DOCKED: REMARK   10  A    between atoms: N_21  and  C_22
DOCKED: REMARK   11  A    between atoms: C_25  and  C_26
DOCKED: REMARK                            x       y       z     vdW  Elec       q    Type
DOCKED: REMARK                         _______ _______ _______ _____ _____    ______ ____
DOCKED: USER                              x       y       z     vdW  Elec       q    Type
DOCKED: USER                           _______ _______ _______ _____ _____    ______ ____
DOCKED: ROOT
DOCKED: ATOM      1  C   UNL     1      37.803  18.074 123.004 -0.16 -0.00    +0.000 C 
DOCKED: ENDROOT
DOCKED: BRANCH   1   2
DOCKED: ATOM      2  C   UNL     1      39.134  17.756 122.385 -0.12 -0.00    +0.000 A 
DOCKED: ATOM      3  C   UNL     1      39.254  17.589 120.997 -0.07 -0.00    +0.000 A 
DOCKED: ATOM      4  C   UNL     1      40.492  17.276 120.427 -0.09 -0.00    +0.000 A 
DOCKED: ATOM      5  C   UNL     1      41.622  17.112 121.239 -0.15 -0.00    +0.000 A 
DOCKED: ATOM      6  C   UNL     1      42.866  16.788 120.676 -0.17 -0.00    +0.000 A 
DOCKED: ATOM      7  C   UNL     1      43.989  16.590 121.497 -0.25 -0.00    +0.000 A 
DOCKED: ATOM      8  C   UNL     1      43.867  16.761 122.885 -0.28 -0.00    +0.000 A 
DOCKED: ATOM      9  C   UNL     1      42.634  17.091 123.454 -0.32 -0.00    +0.000 A 
DOCKED: ATOM     10  C   UNL     1      41.504  17.264 122.641 -0.25 -0.00    +0.000 A 
DOCKED: ATOM     11  C   UNL     1      40.261  17.587 123.204 -0.21 -0.00    +0.000 A 
DOCKED: ATOM     12  CM  UNL     1      40.378  17.431 121.815 +0.00 -0.00    +0.000 AC
DOCKED: ATOM     13  CM  UNL     1      42.748  16.934 122.066 +0.00 -0.00    +0.000 AC
DOCKED: BRANCH   7  12
DOCKED: ATOM     14  C   UNL     1      45.325  16.254 120.883 -0.27 +0.00    +0.000 C 
DOCKED: BRANCH  12  13
DOCKED: ATOM     15  N   UNL     1      46.312  17.324 121.145 -0.15 +0.00    +0.000 N 
DOCKED: ATOM     16  H   UNL     1      46.752  17.437 120.231 +0.00 +0.00    +0.000 HD
DOCKED: BRANCH  13  15
DOCKED: ATOM     17  C   UNL     1      45.716  18.645 121.436 -0.11 -0.00    +0.000 C 
DOCKED: ATOM     18  C   UNL     1      46.698  19.640 122.059 -0.09 -0.00    +0.000 C 
DOCKED: ENDBRANCH  13  15
DOCKED: BRANCH  13  17
DOCKED: ATOM     19  C   UNL     1      47.486  16.963 121.981 -0.27 +0.00    +0.000 C 
DOCKED: ATOM     20  C   UNL     1      47.173  16.731 123.466 -0.47 +0.00    +0.000 C 
DOCKED: ENDBRANCH  13  17
DOCKED: ENDBRANCH  12  13
DOCKED: ENDBRANCH   7  12
DOCKED: ENDBRANCH   1   2
DOCKED: BRANCH   1  19
DOCKED: ATOM     21  O   UNL     1      36.769  17.489 122.220 -0.18 -0.00    +0.000 OA
DOCKED: BRANCH  19  21
DOCKED: ATOM     22  O   UNL     1      36.673  15.727 120.734 -0.24 -0.00    +0.000 OA
DOCKED: ATOM     23  C   UNL     1      36.718  16.122 121.932 -0.26 -0.00    +0.000 C 
DOCKED: ATOM     24  N   UNL     1      36.671  15.183 123.015 -0.38 -0.00    +0.000 N 
DOCKED: ATOM     25  H   UNL     1      36.588  15.540 123.930 -0.03 -0.00    +0.000 HD
DOCKED: BRANCH  22  24
DOCKED: ATOM     26  C   UNL     1      36.738  13.756 122.855 -0.47 -0.00    +0.000 A 
DOCKED: ATOM     27  C   UNL     1      37.163  13.220 121.632 -0.42 -0.00    +0.000 A 
DOCKED: ATOM     28  C   UNL     1      37.213  11.837 121.440 -0.45 -0.00    +0.000 A 
DOCKED: ATOM     29  C   UNL     1      36.815  10.960 122.465 -0.55 -0.00    +0.000 A 
DOCKED: ATOM     30  C   UNL     1      36.382  11.500 123.690 -0.61 -0.00    +0.000 A 
DOCKED: ATOM     31  C   UNL     1      36.334  12.884 123.879 -0.52 -0.00    +0.000 A 
DOCKED: ATOM     32  CM  UNL     1      36.774  12.359 122.661 +0.00 -0.00    +0.000 AC
DOCKED: BRANCH  27  30
DOCKED: ATOM     33  C   UNL     1      36.858   9.487 122.280 -0.67 -0.00    +0.000 C 
DOCKED: ATOM     34  N   UNL     1      37.099   8.603 123.380 -0.66 -0.00    +0.000 N 
DOCKED: ATOM     35  O   UNL     1      37.031   7.263 123.203 -2.25 -0.00    +0.000 OA
DOCKED: ATOM     36  O   UNL     1      36.693   9.001 121.128 -2.62 -0.00    +0.000 OA
DOCKED: ATOM     37  H   UNL     1      37.315   8.971 124.266 -0.59 -0.00    +0.000 HD
DOCKED: ENDBRANCH  27  30
DOCKED: ENDBRANCH  22  24
DOCKED: ENDBRANCH  19  21
DOCKED: ENDBRANCH   1  19
DOCKED: TORSDOF 9DOCKED: TER
DOCKED: ENDMDL
________________________________________________________________________________


	BEGINNING GENETIC ALGORITHM DOCKING 7 of 100
Run: 7 Seed: 1107999072 432346235 [ Run 7 of 100 GA/GALS ]
Beginning LAMARCKIAN GENETIC ALGORITHM (LGA), with a maximum of 2500000 energy evaluations.

Final-Value: -17.487


	FINAL GENETIC ALGORITHM DOCKED STATE
	_______________________________________________


Detailed state:  trans 37.468 16.587 124.013 quatxyzw 0.416280 0.392713 -0.077672 -0.816367 center 1.619 0.086 0.013 ntor 9 166.4869 57.8160 14.3837 168.5487 157.5386 180.0000 -134.8698 -117.9629 -169.2730
State:	 37.468  16.587 124.013   0.721  0.680 -0.134 -70.554    166.49   57.82   14.38  168.55  157.54  180.00 -134.87 -117.96 -169.27

DOCKED: MODEL        7
DOCKED: USER    Run = 7
DOCKED: USER    DPF = ligand_dock.biased.dpf
DOCKED: USER  
DOCKED: USER    Estimated Free Energy of Binding    =  -13.18 kcal/mol  [=(1)+(2)+(3)-(4)]
DOCKED: USER    Estimated Inhibition Constant, Ki   =  218.40 pM (picomolar)  [Temperature = 298.15 K]
DOCKED: USER    
DOCKED: USER    (1) Final Intermolecular Energy     =  -15.86 kcal/mol
DOCKED: USER        vdW + Hbond + desolv Energy     =  -15.86 kcal/mol
DOCKED: USER        Electrostatic Energy            =   +0.00 kcal/mol
DOCKED: USER    (2) Final Total Internal Energy     =   -1.62 kcal/mol
DOCKED: USER    (3) Torsional Free Energy           =   +2.68 kcal/mol
DOCKED: USER    (4) Unbound System's Energy  [=(2)] =   -1.62 kcal/mol
DOCKED: USER    
DOCKED: USER    
DOCKED: USER    NEWDPF move ligand.dum.pdbqt
DOCKED: USER    NEWDPF about 1.619000 0.086000 0.013000
DOCKED: USER    NEWDPF tran0 37.468213 16.587365 124.013493
DOCKED: USER    NEWDPF quaternion0 0.416280 0.392713 -0.077672 -0.816367
DOCKED: USER    NEWDPF axisangle0 0.720789 0.679982 -0.134489 -70.554487
DOCKED: USER    NEWDPF quat0 0.720789 0.679982 -0.134489 -70.554487
DOCKED: USER    NEWDPF dihe0 166.49 57.82 14.38 168.55 157.54 180.00 -134.87 -117.96 -169.27 
DOCKED: USER  keepresnum = 1 
DOCKED: USER  
DOCKED: REMARK  Name = 
DOCKED: REMARK  11 active torsions:
DOCKED: REMARK  status: ('A' for Active; 'I' for Inactive)
DOCKED: REMARK    1  A    between atoms: C_2  and  O_3
DOCKED: REMARK    2  A    between atoms: O_3  and  C_4
DOCKED: REMARK    3  A    between atoms: C_4  and  C_5
DOCKED: REMARK    4  A    between atoms: C_10  and  C_11
DOCKED: REMARK    5  A    between atoms: C_11  and  N_12
DOCKED: REMARK    6  A    between atoms: N_12  and  C_13
DOCKED: REMARK    7  A    between atoms: N_12  and  C_15
DOCKED: REMARK    8  A    between atoms: C_13  and  C_14
DOCKED: REMARK    9  A    between atoms: C_15  and  C_16
DOCKED: REMARK   10  A    between atoms: N_21  and  C_22
DOCKED: REMARK   11  A    between atoms: C_25  and  C_26
DOCKED: REMARK                            x       y       z     vdW  Elec       q    Type
DOCKED: REMARK                         _______ _______ _______ _____ _____    ______ ____
DOCKED: USER                              x       y       z     vdW  Elec       q    Type
DOCKED: USER                           _______ _______ _______ _____ _____    ______ ____
DOCKED: ROOT
DOCKED: ATOM      1  C   UNL     1      36.211  18.188 122.750 -0.22 -0.00    +0.000 C 
DOCKED: ENDROOT
DOCKED: BRANCH   1   2
DOCKED: ATOM      2  C   UNL     1      35.345  17.807 123.917 -0.29 -0.00    +0.000 A 
DOCKED: ATOM      3  C   UNL     1      35.008  16.466 124.148 -0.43 -0.00    +0.000 A 
DOCKED: ATOM      4  C   UNL     1      34.187  16.118 125.226 -0.44 -0.00    +0.000 A 
DOCKED: ATOM      5  C   UNL     1      33.681  17.111 126.077 -0.36 -0.00    +0.000 A 
DOCKED: ATOM      6  C   UNL     1      32.848  16.773 127.154 -0.29 -0.00    +0.000 A 
DOCKED: ATOM      7  C   UNL     1      32.315  17.773 127.983 -0.28 -0.00    +0.000 A 
DOCKED: ATOM      8  C   UNL     1      32.656  19.115 127.752 -0.18 -0.00    +0.000 A 
DOCKED: ATOM      9  C   UNL     1      33.492  19.461 126.685 -0.21 -0.00    +0.000 A 
DOCKED: ATOM     10  C   UNL     1      34.005  18.468 125.839 -0.30 -0.00    +0.000 A 
DOCKED: ATOM     11  C   UNL     1      34.836  18.807 124.761 -0.24 -0.00    +0.000 A 
DOCKED: ATOM     12  CM  UNL     1      34.511  17.462 124.995 -0.41 -0.00    +0.000 AC
DOCKED: ATOM     13  CM  UNL     1      33.166  18.117 126.915 +0.00 -0.00    +0.000 AC
DOCKED: BRANCH   7  12
DOCKED: ATOM     14  C   UNL     1      31.431  17.400 129.146 -0.40 -0.00    +0.000 C 
DOCKED: BRANCH  12  13
DOCKED: ATOM     15  N   UNL     1      32.145  17.567 130.431 -0.24 -0.00    +0.000 N 
DOCKED: ATOM     16  H   UNL     1      31.752  16.813 130.994 -0.04 -0.00    +0.000 HD
DOCKED: BRANCH  13  15
DOCKED: ATOM     17  C   UNL     1      33.592  17.267 130.366 -0.22 -0.00    +0.000 C 
DOCKED: ATOM     18  C   UNL     1      34.033  16.156 131.321 -0.24 -0.00    +0.000 C 
DOCKED: ENDBRANCH  13  15
DOCKED: BRANCH  13  17
DOCKED: ATOM     19  C   UNL     1      31.783  18.752 131.251 -0.13 -0.00    +0.000 C 
DOCKED: ATOM     20  C   UNL     1      30.461  19.427 130.860 -0.24 -0.00    +0.000 C 
DOCKED: ENDBRANCH  13  17
DOCKED: ENDBRANCH  12  13
DOCKED: ENDBRANCH   7  12
DOCKED: ENDBRANCH   1   2
DOCKED: BRANCH   1  19
DOCKED: ATOM     21  O   UNL     1      37.483  17.562 122.886 -0.18 -0.00    +0.000 OA
DOCKED: BRANCH  19  21
DOCKED: ATOM     22  O   UNL     1      38.391  15.658 123.819 -0.14 -0.00    +0.000 OA
DOCKED: ATOM     23  C   UNL     1      37.641  16.175 122.944 -0.30 -0.00    +0.000 C 
DOCKED: ATOM     24  N   UNL     1      36.980  15.356 121.970 -0.27 -0.00    +0.000 N 
DOCKED: ATOM     25  H   UNL     1      36.503  15.809 121.236 -0.01 -0.00    +0.000 HD
DOCKED: BRANCH  22  24
DOCKED: ATOM     26  C   UNL     1      36.965  13.919 121.993 -0.35 -0.00    +0.000 A 
DOCKED: ATOM     27  C   UNL     1      36.927  13.252 123.226 -0.52 -0.00    +0.000 A 
DOCKED: ATOM     28  C   UNL     1      36.939  11.856 123.279 -0.60 -0.00    +0.000 A 
DOCKED: ATOM     29  C   UNL     1      37.011  11.097 122.096 -0.49 -0.00    +0.000 A 
DOCKED: ATOM     30  C   UNL     1      37.056  11.769 120.861 -0.43 -0.00    +0.000 A 
DOCKED: ATOM     31  C   UNL     1      37.044  13.165 120.811 -0.39 -0.00    +0.000 A 
DOCKED: ATOM     32  CM  UNL     1      36.991  12.509 122.044 +0.00 -0.00    +0.000 AC
DOCKED: BRANCH  27  30
DOCKED: ATOM     33  C   UNL     1      37.027   9.612 122.132 -0.61 -0.00    +0.000 C 
DOCKED: ATOM     34  N   UNL     1      37.139   8.896 123.367 -0.60 -0.00    +0.000 N 
DOCKED: ATOM     35  O   UNL     1      37.047   7.547 123.381 -2.53 -0.00    +0.000 OA
DOCKED: ATOM     36  O   UNL     1      36.955   8.964 121.052 -2.68 -0.00    +0.000 OA
DOCKED: ATOM     37  H   UNL     1      37.283   9.387 124.207 -0.62 -0.00    +0.000 HD
DOCKED: ENDBRANCH  27  30
DOCKED: ENDBRANCH  22  24
DOCKED: ENDBRANCH  19  21
DOCKED: ENDBRANCH   1  19
DOCKED: TORSDOF 9DOCKED: TER
DOCKED: ENDMDL
________________________________________________________________________________


	BEGINNING GENETIC ALGORITHM DOCKING 8 of 100
Run: 8 Seed: 87718840 1152788958 [ Run 8 of 100 GA/GALS ]
Beginning LAMARCKIAN GENETIC ALGORITHM (LGA), with a maximum of 2500000 energy evaluations.

Final-Value: -17.169


	FINAL GENETIC ALGORITHM DOCKED STATE
	_______________________________________________


Detailed state:  trans 35.681 16.527 123.294 quatxyzw 0.531662 -0.299372 0.144167 -0.779056 center 1.619 0.086 0.013 ntor 9 -143.8913 -162.6578 -179.1412 -27.6526 59.7286 93.3992 55.8884 -98.9729 -86.7891
State:	 35.681  16.527 123.294   0.848 -0.478  0.230 -77.652   -143.89 -162.66 -179.14  -27.65   59.73   93.40   55.89  -98.97  -86.79

DOCKED: MODEL        8
DOCKED: USER    Run = 8
DOCKED: USER    DPF = ligand_dock.biased.dpf
DOCKED: USER  
DOCKED: USER    Estimated Free Energy of Binding    =  -12.87 kcal/mol  [=(1)+(2)+(3)-(4)]
DOCKED: USER    Estimated Inhibition Constant, Ki   =  367.11 pM (picomolar)  [Temperature = 298.15 K]
DOCKED: USER    
DOCKED: USER    (1) Final Intermolecular Energy     =  -15.56 kcal/mol
DOCKED: USER        vdW + Hbond + desolv Energy     =  -15.56 kcal/mol
DOCKED: USER        Electrostatic Energy            =   +0.00 kcal/mol
DOCKED: USER    (2) Final Total Internal Energy     =   -1.61 kcal/mol
DOCKED: USER    (3) Torsional Free Energy           =   +2.68 kcal/mol
DOCKED: USER    (4) Unbound System's Energy  [=(2)] =   -1.61 kcal/mol
DOCKED: USER    
DOCKED: USER    
DOCKED: USER    NEWDPF move ligand.dum.pdbqt
DOCKED: USER    NEWDPF about 1.619000 0.086000 0.013000
DOCKED: USER    NEWDPF tran0 35.680671 16.526615 123.294132
DOCKED: USER    NEWDPF quaternion0 0.531662 -0.299372 0.144167 -0.779056
DOCKED: USER    NEWDPF axisangle0 0.848007 -0.477501 0.229948 -77.651588
DOCKED: USER    NEWDPF quat0 0.848007 -0.477501 0.229948 -77.651588
DOCKED: USER    NEWDPF dihe0 -143.89 -162.66 -179.14 -27.65 59.73 93.40 55.89 -98.97 -86.79 
DOCKED: USER  keepresnum = 1 
DOCKED: USER  
DOCKED: REMARK  Name = 
DOCKED: REMARK  11 active torsions:
DOCKED: REMARK  status: ('A' for Active; 'I' for Inactive)
DOCKED: REMARK    1  A    between atoms: C_2  and  O_3
DOCKED: REMARK    2  A    between atoms: O_3  and  C_4
DOCKED: REMARK    3  A    between atoms: C_4  and  C_5
DOCKED: REMARK    4  A    between atoms: C_10  and  C_11
DOCKED: REMARK    5  A    between atoms: C_11  and  N_12
DOCKED: REMARK    6  A    between atoms: N_12  and  C_13
DOCKED: REMARK    7  A    between atoms: N_12  and  C_15
DOCKED: REMARK    8  A    between atoms: C_13  and  C_14
DOCKED: REMARK    9  A    between atoms: C_15  and  C_16
DOCKED: REMARK   10  A    between atoms: N_21  and  C_22
DOCKED: REMARK   11  A    between atoms: C_25  and  C_26
DOCKED: REMARK                            x       y       z     vdW  Elec       q    Type
DOCKED: REMARK                         _______ _______ _______ _____ _____    ______ ____
DOCKED: USER                              x       y       z     vdW  Elec       q    Type
DOCKED: USER                           _______ _______ _______ _____ _____    ______ ____
DOCKED: ROOT
DOCKED: ATOM      1  C   UNL     1      36.871  18.511 122.675 -0.16 -0.00    +0.000 C 
DOCKED: ENDROOT
DOCKED: BRANCH   1   2
DOCKED: ATOM      2  C   UNL     1      35.608  18.514 121.863 -0.23 -0.00    +0.000 A 
DOCKED: ATOM      3  C   UNL     1      34.461  17.852 122.324 -0.34 -0.00    +0.000 A 
DOCKED: ATOM      4  C   UNL     1      33.292  17.843 121.556 -0.22 -0.00    +0.000 A 
DOCKED: ATOM      5  C   UNL     1      33.261  18.485 120.310 -0.32 -0.00    +0.000 A 
DOCKED: ATOM      6  C   UNL     1      32.095  18.473 119.529 -0.39 -0.00    +0.000 A 
DOCKED: ATOM      7  C   UNL     1      32.078  19.087 118.266 -0.23 -0.00    +0.000 A 
DOCKED: ATOM      8  C   UNL     1      33.227  19.753 117.808 -0.15 -0.00    +0.000 A 
DOCKED: ATOM      9  C   UNL     1      34.390  19.777 118.583 -0.16 -0.00    +0.000 A 
DOCKED: ATOM     10  C   UNL     1      34.419  19.142 119.833 -0.19 -0.00    +0.000 A 
DOCKED: ATOM     11  C   UNL     1      35.585  19.154 120.614 -0.16 -0.00    +0.000 A 
DOCKED: ATOM     12  CM  UNL     1      34.437  18.498 121.084 +0.00 -0.00    +0.000 AC
DOCKED: ATOM     13  CM  UNL     1      33.245  19.120 119.054 +0.00 -0.00    +0.000 AC
DOCKED: BRANCH   7  12
DOCKED: ATOM     14  C   UNL     1      30.819  19.080 117.437 -0.18 -0.00    +0.000 C 
DOCKED: BRANCH  12  13
DOCKED: ATOM     15  N   UNL     1      29.674  18.563 118.218 -0.27 -0.00    +0.000 N 
DOCKED: ATOM     16  H   UNL     1      30.014  18.644 119.177 -0.09 -0.00    +0.000 HD
DOCKED: BRANCH  13  15
DOCKED: ATOM     17  C   UNL     1      28.472  19.423 118.178 -0.26 -0.00    +0.000 C 
DOCKED: ATOM     18  C   UNL     1      28.617  20.723 118.973 -0.28 -0.00    +0.000 C 
DOCKED: ENDBRANCH  13  15
DOCKED: BRANCH  13  17
DOCKED: ATOM     19  C   UNL     1      29.409  17.104 118.134 -0.41 -0.00    +0.000 C 
DOCKED: ATOM     20  C   UNL     1      28.651  16.516 119.333 -0.53 -0.00    +0.000 C 
DOCKED: ENDBRANCH  13  17
DOCKED: ENDBRANCH  12  13
DOCKED: ENDBRANCH   7  12
DOCKED: ENDBRANCH   1   2
DOCKED: BRANCH   1  19
DOCKED: ATOM     21  O   UNL     1      36.842  17.416 123.584 -0.25 -0.00    +0.000 OA
DOCKED: BRANCH  19  21
DOCKED: ATOM     22  O   UNL     1      38.238  15.830 122.657 -0.31 -0.00    +0.000 OA
DOCKED: ATOM     23  C   UNL     1      37.131  16.104 123.198 -0.33 -0.00    +0.000 C 
DOCKED: ATOM     24  N   UNL     1      36.135  15.089 123.382 -0.44 -0.00    +0.000 N 
DOCKED: ATOM     25  H   UNL     1      35.244  15.369 123.697 -0.02 -0.00    +0.000 HD
DOCKED: BRANCH  22  24
DOCKED: ATOM     26  C   UNL     1      36.349  13.688 123.140 -0.49 -0.00    +0.000 A 
DOCKED: ATOM     27  C   UNL     1      36.883  13.276 121.910 -0.39 -0.00    +0.000 A 
DOCKED: ATOM     28  C   UNL     1      37.078  11.920 121.638 -0.49 -0.00    +0.000 A 
DOCKED: ATOM     29  C   UNL     1      36.720  10.943 122.585 -0.58 -0.00    +0.000 A 
DOCKED: ATOM     30  C   UNL     1      36.178  11.358 123.815 -0.56 -0.00    +0.000 A 
DOCKED: ATOM     31  C   UNL     1      35.985  12.716 124.086 -0.39 -0.00    +0.000 A 
DOCKED: ATOM     32  CM  UNL     1      36.532  12.316 122.863 +0.00 -0.00    +0.000 AC
DOCKED: BRANCH  27  30
DOCKED: ATOM     33  C   UNL     1      36.917   9.497 122.313 -0.65 -0.00    +0.000 C 
DOCKED: ATOM     34  N   UNL     1      36.996   8.541 123.377 -0.68 -0.00    +0.000 N 
DOCKED: ATOM     35  O   UNL     1      37.071   7.219 123.099 -2.19 -0.00    +0.000 OA
DOCKED: ATOM     36  O   UNL     1      37.031   9.098 121.122 -2.71 -0.00    +0.000 OA
DOCKED: ATOM     37  H   UNL     1      36.996   8.847 124.312 -0.52 -0.00    +0.000 HD
DOCKED: ENDBRANCH  27  30
DOCKED: ENDBRANCH  22  24
DOCKED: ENDBRANCH  19  21
DOCKED: ENDBRANCH   1  19
DOCKED: TORSDOF 9DOCKED: TER
DOCKED: ENDMDL
________________________________________________________________________________


	BEGINNING GENETIC ALGORITHM DOCKING 9 of 100
Run: 9 Seed: 854954158 1298641447 [ Run 9 of 100 GA/GALS ]
Beginning LAMARCKIAN GENETIC ALGORITHM (LGA), with a maximum of 2500000 energy evaluations.

Final-Value: -17.422


	FINAL GENETIC ALGORITHM DOCKED STATE
	_______________________________________________


Detailed state:  trans 35.854 16.049 123.451 quatxyzw -0.299305 0.339714 -0.823896 0.340892 center 1.619 0.086 0.013 ntor 9 -159.0785 54.6996 177.7865 -46.4997 -28.1218 -102.8353 -108.2679 157.0957 -180.0000
State:	 35.854  16.049 123.451  -0.318  0.361 -0.876 140.138   -159.08   54.70  177.79  -46.50  -28.12 -102.84 -108.27  157.10 -180.00

DOCKED: MODEL        9
DOCKED: USER    Run = 9
DOCKED: USER    DPF = ligand_dock.biased.dpf
DOCKED: USER  
DOCKED: USER    Estimated Free Energy of Binding    =  -12.44 kcal/mol  [=(1)+(2)+(3)-(4)]
DOCKED: USER    Estimated Inhibition Constant, Ki   =  757.62 pM (picomolar)  [Temperature = 298.15 K]
DOCKED: USER    
DOCKED: USER    (1) Final Intermolecular Energy     =  -15.13 kcal/mol
DOCKED: USER        vdW + Hbond + desolv Energy     =  -15.13 kcal/mol
DOCKED: USER        Electrostatic Energy            =   +0.00 kcal/mol
DOCKED: USER    (2) Final Total Internal Energy     =   -2.29 kcal/mol
DOCKED: USER    (3) Torsional Free Energy           =   +2.68 kcal/mol
DOCKED: USER    (4) Unbound System's Energy  [=(2)] =   -2.29 kcal/mol
DOCKED: USER    
DOCKED: USER    
DOCKED: USER    NEWDPF move ligand.dum.pdbqt
DOCKED: USER    NEWDPF about 1.619000 0.086000 0.013000
DOCKED: USER    NEWDPF tran0 35.854215 16.049126 123.450883
DOCKED: USER    NEWDPF quaternion0 -0.299305 0.339714 -0.823896 0.340892
DOCKED: USER    NEWDPF axisangle0 -0.318375 0.361358 -0.876389 140.137589
DOCKED: USER    NEWDPF quat0 -0.318375 0.361358 -0.876389 140.137589
DOCKED: USER    NEWDPF dihe0 -159.08 54.70 177.79 -46.50 -28.12 -102.84 -108.27 157.10 -180.00 
DOCKED: USER  keepresnum = 1 
DOCKED: USER  
DOCKED: REMARK  Name = 
DOCKED: REMARK  11 active torsions:
DOCKED: REMARK  status: ('A' for Active; 'I' for Inactive)
DOCKED: REMARK    1  A    between atoms: C_2  and  O_3
DOCKED: REMARK    2  A    between atoms: O_3  and  C_4
DOCKED: REMARK    3  A    between atoms: C_4  and  C_5
DOCKED: REMARK    4  A    between atoms: C_10  and  C_11
DOCKED: REMARK    5  A    between atoms: C_11  and  N_12
DOCKED: REMARK    6  A    between atoms: N_12  and  C_13
DOCKED: REMARK    7  A    between atoms: N_12  and  C_15
DOCKED: REMARK    8  A    between atoms: C_13  and  C_14
DOCKED: REMARK    9  A    between atoms: C_15  and  C_16
DOCKED: REMARK   10  A    between atoms: N_21  and  C_22
DOCKED: REMARK   11  A    between atoms: C_25  and  C_26
DOCKED: REMARK                            x       y       z     vdW  Elec       q    Type
DOCKED: REMARK                         _______ _______ _______ _____ _____    ______ ____
DOCKED: USER                              x       y       z     vdW  Elec       q    Type
DOCKED: USER                           _______ _______ _______ _____ _____    ______ ____
DOCKED: ROOT
DOCKED: ATOM      1  C   UNL     1      35.279  18.144 122.442 -0.31 -0.00    +0.000 C 
DOCKED: ENDROOT
DOCKED: BRANCH   1   2
DOCKED: ATOM      2  C   UNL     1      36.138  17.424 121.443 -0.19 -0.00    +0.000 A 
DOCKED: ATOM      3  C   UNL     1      37.494  17.181 121.709 -0.13 -0.00    +0.000 A 
DOCKED: ATOM      4  C   UNL     1      38.294  16.525 120.768 -0.12 -0.00    +0.000 A 
DOCKED: ATOM      5  C   UNL     1      37.751  16.118 119.541 -0.14 -0.00    +0.000 A 
DOCKED: ATOM      6  C   UNL     1      38.549  15.469 118.587 -0.16 -0.00    +0.000 A 
DOCKED: ATOM      7  C   UNL     1      38.010  15.094 117.345 -0.19 -0.00    +0.000 A 
DOCKED: ATOM      8  C   UNL     1      36.652  15.336 117.081 -0.18 -0.00    +0.000 A 
DOCKED: ATOM      9  C   UNL     1      35.848  15.975 118.029 -0.15 -0.00    +0.000 A 
DOCKED: ATOM     10  C   UNL     1      36.388  16.375 119.260 -0.15 -0.00    +0.000 A 
DOCKED: ATOM     11  C   UNL     1      35.590  17.025 120.213 -0.10 -0.00    +0.000 A 
DOCKED: ATOM     12  CM  UNL     1      36.943  16.775 120.490 +0.00 -0.00    +0.000 AC
DOCKED: ATOM     13  CM  UNL     1      37.200  15.728 118.307 +0.00 -0.00    +0.000 AC
DOCKED: BRANCH   7  12
DOCKED: ATOM     14  C   UNL     1      38.871  14.386 116.329 -0.32 -0.00    +0.000 C 
DOCKED: BRANCH  12  13
DOCKED: ATOM     15  N   UNL     1      39.744  15.344 115.615 -0.26 -0.00    +0.000 N 
DOCKED: ATOM     16  H   UNL     1      39.469  16.235 116.031 +0.00 -0.00    +0.000 HD
DOCKED: BRANCH  13  15
DOCKED: ATOM     17  C   UNL     1      41.181  15.212 115.936 -0.34 -0.00    +0.000 C 
DOCKED: ATOM     18  C   UNL     1      41.615  16.017 117.163 -0.24 -0.00    +0.000 C 
DOCKED: ENDBRANCH  13  15
DOCKED: BRANCH  13  17
DOCKED: ATOM     19  C   UNL     1      39.436  15.592 114.184 -0.24 -0.00    +0.000 C 
DOCKED: ATOM     20  C   UNL     1      38.071  15.069 113.716 -0.21 -0.00    +0.000 C 
DOCKED: ENDBRANCH  13  17
DOCKED: ENDBRANCH  12  13
DOCKED: ENDBRANCH   7  12
DOCKED: ENDBRANCH   1   2
DOCKED: BRANCH   1  19
DOCKED: ATOM     21  O   UNL     1      35.027  17.286 123.549 -0.37 -0.00    +0.000 OA
DOCKED: BRANCH  19  21
DOCKED: ATOM     22  O   UNL     1      33.996  15.223 123.481 -0.64 -0.00    +0.000 OA
DOCKED: ATOM     23  C   UNL     1      35.066  15.892 123.450 -0.49 -0.00    +0.000 C 
DOCKED: ATOM     24  N   UNL     1      36.338  15.235 123.362 -0.41 -0.00    +0.000 N 
DOCKED: ATOM     25  H   UNL     1      37.148  15.787 123.462 -0.02 -0.00    +0.000 HD
DOCKED: BRANCH  22  24
DOCKED: ATOM     26  C   UNL     1      36.509  13.826 123.137 -0.48 -0.00    +0.000 A 
DOCKED: ATOM     27  C   UNL     1      37.063  13.385 121.926 -0.42 -0.00    +0.000 A 
DOCKED: ATOM     28  C   UNL     1      37.217  12.021 121.670 -0.46 -0.00    +0.000 A 
DOCKED: ATOM     29  C   UNL     1      36.797  11.065 122.613 -0.57 -0.00    +0.000 A 
DOCKED: ATOM     30  C   UNL     1      36.235  11.509 123.824 -0.60 -0.00    +0.000 A 
DOCKED: ATOM     31  C   UNL     1      36.083  12.875 124.078 -0.39 -0.00    +0.000 A 
DOCKED: ATOM     32  CM  UNL     1      36.650  12.447 122.875 +0.00 -0.00    +0.000 AC
DOCKED: BRANCH  27  30
DOCKED: ATOM     33  C   UNL     1      36.949   9.610 122.358 -0.63 -0.00    +0.000 C 
DOCKED: ATOM     34  N   UNL     1      37.028   8.668 123.433 -0.65 -0.00    +0.000 N 
DOCKED: ATOM     35  O   UNL     1      37.063   7.341 123.173 -2.35 -0.00    +0.000 OA
DOCKED: ATOM     36  O   UNL     1      37.025   9.192 121.170 -2.72 -0.00    +0.000 OA
DOCKED: ATOM     37  H   UNL     1      37.058   8.987 124.364 -0.52 -0.00    +0.000 HD
DOCKED: ENDBRANCH  27  30
DOCKED: ENDBRANCH  22  24
DOCKED: ENDBRANCH  19  21
DOCKED: ENDBRANCH   1  19
DOCKED: TORSDOF 9DOCKED: TER
DOCKED: ENDMDL
________________________________________________________________________________


	BEGINNING GENETIC ALGORITHM DOCKING 10 of 100
Run: 10 Seed: 48900642 2052969058 [ Run 10 of 100 GA/GALS ]
Beginning LAMARCKIAN GENETIC ALGORITHM (LGA), with a maximum of 2500000 energy evaluations.

Final-Value: -16.217


	FINAL GENETIC ALGORITHM DOCKED STATE
	_______________________________________________


Detailed state:  trans 35.818 16.355 123.071 quatxyzw 0.423886 -0.396675 0.649153 -0.491498 center 1.619 0.086 0.013 ntor 9 -169.6911 102.9540 2.2114 -62.7843 138.6651 49.6760 -72.7146 176.2383 173.8432
State:	 35.818  16.355 123.071   0.487 -0.455  0.745 -121.122   -169.69  102.95    2.21  -62.78  138.67   49.68  -72.71  176.24  173.84

DOCKED: MODEL       10
DOCKED: USER    Run = 10
DOCKED: USER    DPF = ligand_dock.biased.dpf
DOCKED: USER  
DOCKED: USER    Estimated Free Energy of Binding    =  -11.32 kcal/mol  [=(1)+(2)+(3)-(4)]
DOCKED: USER    Estimated Inhibition Constant, Ki   =    5.01 nM (nanomolar)  [Temperature = 298.15 K]
DOCKED: USER    
DOCKED: USER    (1) Final Intermolecular Energy     =  -14.01 kcal/mol
DOCKED: USER        vdW + Hbond + desolv Energy     =  -14.01 kcal/mol
DOCKED: USER        Electrostatic Energy            =   +0.00 kcal/mol
DOCKED: USER    (2) Final Total Internal Energy     =   -2.21 kcal/mol
DOCKED: USER    (3) Torsional Free Energy           =   +2.68 kcal/mol
DOCKED: USER    (4) Unbound System's Energy  [=(2)] =   -2.21 kcal/mol
DOCKED: USER    
DOCKED: USER    
DOCKED: USER    NEWDPF move ligand.dum.pdbqt
DOCKED: USER    NEWDPF about 1.619000 0.086000 0.013000
DOCKED: USER    NEWDPF tran0 35.818264 16.354754 123.070756
DOCKED: USER    NEWDPF quaternion0 0.423886 -0.396675 0.649153 -0.491498
DOCKED: USER    NEWDPF axisangle0 0.486733 -0.455489 0.745400 -121.121789
DOCKED: USER    NEWDPF quat0 0.486733 -0.455489 0.745400 -121.121789
DOCKED: USER    NEWDPF dihe0 -169.69 102.95 2.21 -62.78 138.67 49.68 -72.71 176.24 173.84 
DOCKED: USER  keepresnum = 1 
DOCKED: USER  
DOCKED: REMARK  Name = 
DOCKED: REMARK  11 active torsions:
DOCKED: REMARK  status: ('A' for Active; 'I' for Inactive)
DOCKED: REMARK    1  A    between atoms: C_2  and  O_3
DOCKED: REMARK    2  A    between atoms: O_3  and  C_4
DOCKED: REMARK    3  A    between atoms: C_4  and  C_5
DOCKED: REMARK    4  A    between atoms: C_10  and  C_11
DOCKED: REMARK    5  A    between atoms: C_11  and  N_12
DOCKED: REMARK    6  A    between atoms: N_12  and  C_13
DOCKED: REMARK    7  A    between atoms: N_12  and  C_15
DOCKED: REMARK    8  A    between atoms: C_13  and  C_14
DOCKED: REMARK    9  A    between atoms: C_15  and  C_16
DOCKED: REMARK   10  A    between atoms: N_21  and  C_22
DOCKED: REMARK   11  A    between atoms: C_25  and  C_26
DOCKED: REMARK                            x       y       z     vdW  Elec       q    Type
DOCKED: REMARK                         _______ _______ _______ _____ _____    ______ ____
DOCKED: USER                              x       y       z     vdW  Elec       q    Type
DOCKED: USER                           _______ _______ _______ _____ _____    ______ ____
DOCKED: ROOT
DOCKED: ATOM      1  C   UNL     1      35.703  18.714 122.675 -0.24 -0.00    +0.000 C 
DOCKED: ENDROOT
DOCKED: BRANCH   1   2
DOCKED: ATOM      2  C   UNL     1      35.884  18.076 121.328 -0.20 -0.00    +0.000 A 
DOCKED: ATOM      3  C   UNL     1      37.123  17.532 120.956 -0.12 -0.00    +0.000 A 
DOCKED: ATOM      4  C   UNL     1      37.292  16.954 119.693 -0.11 -0.00    +0.000 A 
DOCKED: ATOM      5  C   UNL     1      36.227  16.926 118.781 -0.13 -0.00    +0.000 A 
DOCKED: ATOM      6  C   UNL     1      36.390  16.357 117.509 -0.12 -0.00    +0.000 A 
DOCKED: ATOM      7  C   UNL     1      35.332  16.363 116.586 -0.12 -0.00    +0.000 A 
DOCKED: ATOM      8  C   UNL     1      34.092  16.904 116.961 -0.13 -0.00    +0.000 A 
DOCKED: ATOM      9  C   UNL     1      33.918  17.466 118.230 -0.07 -0.00    +0.000 A 
DOCKED: ATOM     10  C   UNL     1      34.980  17.487 119.145 -0.11 -0.00    +0.000 A 
DOCKED: ATOM     11  C   UNL     1      34.816  18.057 120.417 -0.25 -0.00    +0.000 A 
DOCKED: ATOM     12  CM  UNL     1      36.054  17.505 120.054 +0.00 -0.00    +0.000 AC
DOCKED: ATOM     13  CM  UNL     1      35.156  16.917 117.869 +0.00 -0.00    +0.000 AC
DOCKED: BRANCH   7  12
DOCKED: ATOM     14  C   UNL     1      35.511  15.739 115.225 -0.13 -0.00    +0.000 C 
DOCKED: BRANCH  12  13
DOCKED: ATOM     15  N   UNL     1      35.189  14.296 115.257 -0.24 -0.00    +0.000 N 
DOCKED: ATOM     16  H   UNL     1      35.229  14.089 116.256 -0.02 -0.00    +0.000 HD
DOCKED: BRANCH  13  15
DOCKED: ATOM     17  C   UNL     1      33.799  13.974 114.867 -0.29 -0.00    +0.000 C 
DOCKED: ATOM     18  C   UNL     1      32.855  13.780 116.056 -0.42 -0.00    +0.000 C 
DOCKED: ENDBRANCH  13  15
DOCKED: BRANCH  13  17
DOCKED: ATOM     19  C   UNL     1      36.222  13.366 114.733 -0.23 -0.00    +0.000 C 
DOCKED: ATOM     20  C   UNL     1      37.558  13.395 115.489 -0.44 -0.00    +0.000 C 
DOCKED: ENDBRANCH  13  17
DOCKED: ENDBRANCH  12  13
DOCKED: ENDBRANCH   7  12
DOCKED: ENDBRANCH   1   2
DOCKED: BRANCH   1  19
DOCKED: ATOM     21  O   UNL     1      35.548  17.698 123.659 -0.29 -0.00    +0.000 OA
DOCKED: BRANCH  19  21
DOCKED: ATOM     22  O   UNL     1      34.409  15.890 122.789 -0.34 -0.00    +0.000 OA
DOCKED: ATOM     23  C   UNL     1      35.453  16.341 123.337 -0.41 -0.00    +0.000 C 
DOCKED: ATOM     24  N   UNL     1      36.535  15.466 123.682 -0.39 -0.00    +0.000 N 
DOCKED: ATOM     25  H   UNL     1      37.276  15.838 124.214 -0.03 -0.00    +0.000 HD
DOCKED: BRANCH  22  24
DOCKED: ATOM     26  C   UNL     1      36.612  14.082 123.301 -0.46 -0.00    +0.000 A 
DOCKED: ATOM     27  C   UNL     1      36.171  13.097 124.196 -0.29 -0.00    +0.000 A 
DOCKED: ATOM     28  C   UNL     1      36.258  11.743 123.863 -0.61 -0.00    +0.000 A 
DOCKED: ATOM     29  C   UNL     1      36.811  11.345 122.632 -0.57 -0.00    +0.000 A 
DOCKED: ATOM     30  C   UNL     1      37.260  12.335 121.738 -0.47 -0.00    +0.000 A 
DOCKED: ATOM     31  C   UNL     1      37.171  13.689 122.074 -0.41 -0.00    +0.000 A 
DOCKED: ATOM     32  CM  UNL     1      36.714  12.715 122.967 +0.00 -0.00    +0.000 AC
DOCKED: BRANCH  27  30
DOCKED: ATOM     33  C   UNL     1      36.915   9.911 122.260 -0.62 -0.00    +0.000 C 
DOCKED: ATOM     34  N   UNL     1      36.869   8.877 123.250 -0.65 -0.00    +0.000 N 
DOCKED: ATOM     35  O   UNL     1      36.862   7.578 122.876 -2.17 -0.00    +0.000 OA
DOCKED: ATOM     36  O   UNL     1      37.061   9.592 121.048 -2.40 -0.00    +0.000 OA
DOCKED: ATOM     37  H   UNL     1      36.843   9.114 124.205 -0.52 -0.00    +0.000 HD
DOCKED: ENDBRANCH  27  30
DOCKED: ENDBRANCH  22  24
DOCKED: ENDBRANCH  19  21
DOCKED: ENDBRANCH   1  19
DOCKED: TORSDOF 9DOCKED: TER
DOCKED: ENDMDL
________________________________________________________________________________


	BEGINNING GENETIC ALGORITHM DOCKING 11 of 100
Run: 11 Seed: 1537004519 1758556174 [ Run 11 of 100 GA/GALS ]
Beginning LAMARCKIAN GENETIC ALGORITHM (LGA), with a maximum of 2500000 energy evaluations.

Final-Value: -15.959


	FINAL GENETIC ALGORITHM DOCKED STATE
	_______________________________________________


Detailed state:  trans 35.932 16.606 121.518 quatxyzw -0.467194 0.318717 -0.162914 0.808461 center 1.619 0.086 0.013 ntor 9 18.9963 164.3511 -167.6731 103.8948 -45.6388 116.4057 21.4913 -106.4251 -1.8854
State:	 35.932  16.606 121.518  -0.794  0.542 -0.277 72.108     19.00  164.35 -167.67  103.89  -45.64  116.41   21.49 -106.43   -1.89

DOCKED: MODEL       11
DOCKED: USER    Run = 11
DOCKED: USER    DPF = ligand_dock.biased.dpf
DOCKED: USER  
DOCKED: USER    Estimated Free Energy of Binding    =  -11.62 kcal/mol  [=(1)+(2)+(3)-(4)]
DOCKED: USER    Estimated Inhibition Constant, Ki   =    3.02 nM (nanomolar)  [Temperature = 298.15 K]
DOCKED: USER    
DOCKED: USER    (1) Final Intermolecular Energy     =  -14.31 kcal/mol
DOCKED: USER        vdW + Hbond + desolv Energy     =  -14.31 kcal/mol
DOCKED: USER        Electrostatic Energy            =   +0.00 kcal/mol
DOCKED: USER    (2) Final Total Internal Energy     =   -1.65 kcal/mol
DOCKED: USER    (3) Torsional Free Energy           =   +2.68 kcal/mol
DOCKED: USER    (4) Unbound System's Energy  [=(2)] =   -1.65 kcal/mol
DOCKED: USER    
DOCKED: USER    
DOCKED: USER    NEWDPF move ligand.dum.pdbqt
DOCKED: USER    NEWDPF about 1.619000 0.086000 0.013000
DOCKED: USER    NEWDPF tran0 35.931612 16.605720 121.518338
DOCKED: USER    NEWDPF quaternion0 -0.467194 0.318717 -0.162914 0.808461
DOCKED: USER    NEWDPF axisangle0 -0.793804 0.541528 -0.276806 72.108366
DOCKED: USER    NEWDPF quat0 -0.793804 0.541528 -0.276806 72.108366
DOCKED: USER    NEWDPF dihe0 19.00 164.35 -167.67 103.89 -45.64 116.41 21.49 -106.43 -1.89 
DOCKED: USER  keepresnum = 1 
DOCKED: USER  
DOCKED: REMARK  Name = 
DOCKED: REMARK  11 active torsions:
DOCKED: REMARK  status: ('A' for Active; 'I' for Inactive)
DOCKED: REMARK    1  A    between atoms: C_2  and  O_3
DOCKED: REMARK    2  A    between atoms: O_3  and  C_4
DOCKED: REMARK    3  A    between atoms: C_4  and  C_5
DOCKED: REMARK    4  A    between atoms: C_10  and  C_11
DOCKED: REMARK    5  A    between atoms: C_11  and  N_12
DOCKED: REMARK    6  A    between atoms: N_12  and  C_13
DOCKED: REMARK    7  A    between atoms: N_12  and  C_15
DOCKED: REMARK    8  A    between atoms: C_13  and  C_14
DOCKED: REMARK    9  A    between atoms: C_15  and  C_16
DOCKED: REMARK   10  A    between atoms: N_21  and  C_22
DOCKED: REMARK   11  A    between atoms: C_25  and  C_26
DOCKED: REMARK                            x       y       z     vdW  Elec       q    Type
DOCKED: REMARK                         _______ _______ _______ _____ _____    ______ ____
DOCKED: USER                              x       y       z     vdW  Elec       q    Type
DOCKED: USER                           _______ _______ _______ _____ _____    ______ ____
DOCKED: ROOT
DOCKED: ATOM      1  C   UNL     1      37.233  18.443 120.700 -0.10 -0.00    +0.000 C 
DOCKED: ENDROOT
DOCKED: BRANCH   1   2
DOCKED: ATOM      2  C   UNL     1      36.011  18.378 119.828 -0.14 -0.00    +0.000 A 
DOCKED: ATOM      3  C   UNL     1      35.036  19.384 119.891 -0.13 -0.00    +0.000 A 
DOCKED: ATOM      4  C   UNL     1      33.891  19.311 119.090 -0.22 -0.00    +0.000 A 
DOCKED: ATOM      5  C   UNL     1      33.701  18.222 118.228 -0.17 -0.00    +0.000 A 
DOCKED: ATOM      6  C   UNL     1      32.552  18.135 117.428 -0.15 -0.00    +0.000 A 
DOCKED: ATOM      7  C   UNL     1      32.349  17.026 116.591 -0.14 -0.00    +0.000 A 
DOCKED: ATOM      8  C   UNL     1      33.328  16.021 116.528 -0.17 -0.00    +0.000 A 
DOCKED: ATOM      9  C   UNL     1      34.480  16.103 117.315 -0.09 -0.00    +0.000 A 
DOCKED: ATOM     10  C   UNL     1      34.675  17.196 118.172 -0.10 -0.00    +0.000 A 
DOCKED: ATOM     11  C   UNL     1      35.824  17.282 118.972 -0.13 -0.00    +0.000 A 
DOCKED: ATOM     12  CM  UNL     1      34.856  18.296 119.030 +0.00 -0.00    +0.000 AC
DOCKED: ATOM     13  CM  UNL     1      33.514  17.117 117.377 +0.00 -0.00    +0.000 AC
DOCKED: BRANCH   7  12
DOCKED: ATOM     14  C   UNL     1      31.116  16.945 115.727 -0.14 -0.00    +0.000 C 
DOCKED: BRANCH  12  13
DOCKED: ATOM     15  N   UNL     1      30.064  16.135 116.378 -0.25 -0.00    +0.000 N 
DOCKED: ATOM     16  H   UNL     1      29.210  16.571 116.027 -0.00 -0.00    +0.000 HD
DOCKED: BRANCH  13  15
DOCKED: ATOM     17  C   UNL     1      29.989  14.737 115.901 -0.33 -0.00    +0.000 C 
DOCKED: ATOM     18  C   UNL     1      30.847  13.763 116.712 -0.51 -0.00    +0.000 C 
DOCKED: ENDBRANCH  13  15
DOCKED: BRANCH  13  17
DOCKED: ATOM     19  C   UNL     1      29.891  16.312 117.843 -0.32 -0.00    +0.000 C 
DOCKED: ATOM     20  C   UNL     1      28.481  16.733 118.280 -0.47 -0.00    +0.000 C 
DOCKED: ENDBRANCH  13  17
DOCKED: ENDBRANCH  12  13
DOCKED: ENDBRANCH   7  12
DOCKED: ENDBRANCH   1   2
DOCKED: BRANCH   1  19
DOCKED: ATOM     21  O   UNL     1      37.114  17.485 121.746 -0.15 -0.00    +0.000 OA
DOCKED: BRANCH  19  21
DOCKED: ATOM     22  O   UNL     1      37.822  15.670 120.511 -0.20 -0.00    +0.000 OA
DOCKED: ATOM     23  C   UNL     1      37.217  16.108 121.528 -0.23 -0.00    +0.000 C 
DOCKED: ATOM     24  N   UNL     1      36.585  15.208 122.448 -0.32 -0.00    +0.000 N 
DOCKED: ATOM     25  H   UNL     1      36.024  15.596 123.159 -0.01 -0.00    +0.000 HD
DOCKED: BRANCH  22  24
DOCKED: ATOM     26  C   UNL     1      36.717  13.778 122.404 -0.40 -0.00    +0.000 A 
DOCKED: ATOM     27  C   UNL     1      36.952  13.147 121.174 -0.36 -0.00    +0.000 A 
DOCKED: ATOM     28  C   UNL     1      37.058  11.756 121.097 -0.46 -0.00    +0.000 A 
DOCKED: ATOM     29  C   UNL     1      36.909  10.964 122.250 -0.52 -0.00    +0.000 A 
DOCKED: ATOM     30  C   UNL     1      36.666  11.599 123.482 -0.62 -0.00    +0.000 A 
DOCKED: ATOM     31  C   UNL     1      36.561  12.990 123.556 -0.55 -0.00    +0.000 A 
DOCKED: ATOM     32  CM  UNL     1      36.810  12.372 122.328 +0.00 -0.00    +0.000 AC
DOCKED: BRANCH  27  30
DOCKED: ATOM     33  C   UNL     1      37.016   9.484 122.189 -0.63 -0.00    +0.000 C 
DOCKED: ATOM     34  N   UNL     1      37.076   8.689 123.379 -0.65 -0.00    +0.000 N 
DOCKED: ATOM     35  O   UNL     1      37.069   7.340 123.296 -2.38 -0.00    +0.000 OA
DOCKED: ATOM     36  O   UNL     1      37.069   8.911 121.067 -2.70 -0.00    +0.000 OA
DOCKED: ATOM     37  H   UNL     1      37.123   9.127 124.259 -0.56 -0.00    +0.000 HD
DOCKED: ENDBRANCH  27  30
DOCKED: ENDBRANCH  22  24
DOCKED: ENDBRANCH  19  21
DOCKED: ENDBRANCH   1  19
DOCKED: TORSDOF 9DOCKED: TER
DOCKED: ENDMDL
________________________________________________________________________________


	BEGINNING GENETIC ALGORITHM DOCKING 12 of 100
Run: 12 Seed: 1802892763 961120705 [ Run 12 of 100 GA/GALS ]
Beginning LAMARCKIAN GENETIC ALGORITHM (LGA), with a maximum of 2500000 energy evaluations.

Final-Value: -16.387


	FINAL GENETIC ALGORITHM DOCKED STATE
	_______________________________________________


Detailed state:  trans 38.643 16.047 121.314 quatxyzw -0.509354 0.170898 -0.645782 0.542511 center 1.619 0.086 0.013 ntor 9 -53.4728 -49.3542 174.6854 -30.5278 -92.1690 64.0220 110.2822 175.4893 -180.0000
State:	 38.643  16.047 121.314  -0.606  0.203 -0.769 114.291    -53.47  -49.35  174.69  -30.53  -92.17   64.02  110.28  175.49 -180.00

DOCKED: MODEL       12
DOCKED: USER    Run = 12
DOCKED: USER    DPF = ligand_dock.biased.dpf
DOCKED: USER  
DOCKED: USER    Estimated Free Energy of Binding    =  -11.56 kcal/mol  [=(1)+(2)+(3)-(4)]
DOCKED: USER    Estimated Inhibition Constant, Ki   =    3.39 nM (nanomolar)  [Temperature = 298.15 K]
DOCKED: USER    
DOCKED: USER    (1) Final Intermolecular Energy     =  -14.24 kcal/mol
DOCKED: USER        vdW + Hbond + desolv Energy     =  -14.24 kcal/mol
DOCKED: USER        Electrostatic Energy            =   +0.00 kcal/mol
DOCKED: USER    (2) Final Total Internal Energy     =   -2.15 kcal/mol
DOCKED: USER    (3) Torsional Free Energy           =   +2.68 kcal/mol
DOCKED: USER    (4) Unbound System's Energy  [=(2)] =   -2.15 kcal/mol
DOCKED: USER    
DOCKED: USER    
DOCKED: USER    NEWDPF move ligand.dum.pdbqt
DOCKED: USER    NEWDPF about 1.619000 0.086000 0.013000
DOCKED: USER    NEWDPF tran0 38.643296 16.047132 121.313646
DOCKED: USER    NEWDPF quaternion0 -0.509354 0.170898 -0.645782 0.542511
DOCKED: USER    NEWDPF axisangle0 -0.606339 0.203439 -0.768743 114.290586
DOCKED: USER    NEWDPF quat0 -0.606339 0.203439 -0.768743 114.290586
DOCKED: USER    NEWDPF dihe0 -53.47 -49.35 174.69 -30.53 -92.17 64.02 110.28 175.49 -180.00 
DOCKED: USER  keepresnum = 1 
DOCKED: USER  
DOCKED: REMARK  Name = 
DOCKED: REMARK  11 active torsions:
DOCKED: REMARK  status: ('A' for Active; 'I' for Inactive)
DOCKED: REMARK    1  A    between atoms: C_2  and  O_3
DOCKED: REMARK    2  A    between atoms: O_3  and  C_4
DOCKED: REMARK    3  A    between atoms: C_4  and  C_5
DOCKED: REMARK    4  A    between atoms: C_10  and  C_11
DOCKED: REMARK    5  A    between atoms: C_11  and  N_12
DOCKED: REMARK    6  A    between atoms: N_12  and  C_13
DOCKED: REMARK    7  A    between atoms: N_12  and  C_15
DOCKED: REMARK    8  A    between atoms: C_13  and  C_14
DOCKED: REMARK    9  A    between atoms: C_15  and  C_16
DOCKED: REMARK   10  A    between atoms: N_21  and  C_22
DOCKED: REMARK   11  A    between atoms: C_25  and  C_26
DOCKED: REMARK                            x       y       z     vdW  Elec       q    Type
DOCKED: REMARK                         _______ _______ _______ _____ _____    ______ ____
DOCKED: USER                              x       y       z     vdW  Elec       q    Type
DOCKED: USER                           _______ _______ _______ _____ _____    ______ ____
DOCKED: ROOT
DOCKED: ATOM      1  C   UNL     1      37.859  18.165 120.516 -0.07 -0.00    +0.000 C 
DOCKED: ENDROOT
DOCKED: BRANCH   1   2
DOCKED: ATOM      2  C   UNL     1      37.712  17.208 119.367 -0.08 -0.00    +0.000 A 
DOCKED: ATOM      3  C   UNL     1      38.843  16.658 118.747 -0.09 -0.00    +0.000 A 
DOCKED: ATOM      4  C   UNL     1      38.702  15.781 117.667 -0.14 -0.00    +0.000 A 
DOCKED: ATOM      5  C   UNL     1      37.426  15.456 117.183 -0.16 -0.00    +0.000 A 
DOCKED: ATOM      6  C   UNL     1      37.275  14.585 116.094 -0.25 -0.00    +0.000 A 
DOCKED: ATOM      7  C   UNL     1      35.998  14.289 115.591 -0.26 -0.00    +0.000 A 
DOCKED: ATOM      8  C   UNL     1      34.866  14.838 116.215 -0.24 -0.00    +0.000 A 
DOCKED: ATOM      9  C   UNL     1      35.007  15.701 117.307 -0.16 -0.00    +0.000 A 
DOCKED: ATOM     10  C   UNL     1      36.282  16.020 117.795 -0.15 -0.00    +0.000 A 
DOCKED: ATOM     11  C   UNL     1      36.432  16.892 118.884 -0.12 -0.00    +0.000 A 
DOCKED: ATOM     12  CM  UNL     1      37.567  16.336 118.274 +0.00 -0.00    +0.000 AC
DOCKED: ATOM     13  CM  UNL     1      36.142  15.148 116.697 +0.00 -0.00    +0.000 AC
DOCKED: BRANCH   7  12
DOCKED: ATOM     14  C   UNL     1      35.843  13.343 114.427 -0.21 -0.00    +0.000 C 
DOCKED: BRANCH  12  13
DOCKED: ATOM     15  N   UNL     1      34.751  13.781 113.530 -0.23 -0.00    +0.000 N 
DOCKED: ATOM     16  H   UNL     1      34.590  14.739 113.841 +0.00 -0.00    +0.000 HD
DOCKED: BRANCH  13  15
DOCKED: ATOM     17  C   UNL     1      35.145  13.912 112.111 -0.20 -0.00    +0.000 C 
DOCKED: ATOM     18  C   UNL     1      36.430  13.160 111.756 -0.29 -0.00    +0.000 C 
DOCKED: ENDBRANCH  13  15
DOCKED: BRANCH  13  17
DOCKED: ATOM     19  C   UNL     1      33.412  13.179 113.760 -0.35 -0.00    +0.000 C 
DOCKED: ATOM     20  C   UNL     1      33.135  11.898 112.961 -0.52 -0.00    +0.000 C 
DOCKED: ENDBRANCH  13  17
DOCKED: ENDBRANCH  12  13
DOCKED: ENDBRANCH   7  12
DOCKED: ENDBRANCH   1   2
DOCKED: BRANCH   1  19
DOCKED: ATOM     21  O   UNL     1      38.288  17.451 121.670 -0.11 -0.00    +0.000 OA
DOCKED: BRANCH  19  21
DOCKED: ATOM     22  O   UNL     1      39.522  15.505 121.774 -0.32 -0.00    +0.000 OA
DOCKED: ATOM     23  C   UNL     1      38.390  16.057 121.703 -0.23 -0.00    +0.000 C 
DOCKED: ATOM     24  N   UNL     1      37.195  15.269 121.607 -0.25 -0.00    +0.000 N 
DOCKED: ATOM     25  H   UNL     1      36.347  15.738 121.433 -0.01 -0.00    +0.000 HD
DOCKED: BRANCH  22  24
DOCKED: ATOM     26  C   UNL     1      37.153  13.839 121.749 -0.37 -0.00    +0.000 A 
DOCKED: ATOM     27  C   UNL     1      37.498  13.029 120.657 -0.43 -0.00    +0.000 A 
DOCKED: ATOM     28  C   UNL     1      37.441  11.637 120.759 -0.42 -0.00    +0.000 A 
DOCKED: ATOM     29  C   UNL     1      37.015  11.025 121.952 -0.48 -0.00    +0.000 A 
DOCKED: ATOM     30  C   UNL     1      36.663  11.840 123.044 -0.61 -0.00    +0.000 A 
DOCKED: ATOM     31  C   UNL     1      36.722  13.233 122.940 -0.52 -0.00    +0.000 A 
DOCKED: ATOM     32  CM  UNL     1      37.081  12.433 121.851 +0.00 -0.00    +0.000 AC
DOCKED: BRANCH  27  30
DOCKED: ATOM     33  C   UNL     1      36.945   9.547 122.080 -0.64 -0.00    +0.000 C 
DOCKED: ATOM     34  N   UNL     1      37.092   8.899 123.348 -0.62 -0.00    +0.000 N 
DOCKED: ATOM     35  O   UNL     1      36.922   7.561 123.451 -2.50 -0.00    +0.000 OA
DOCKED: ATOM     36  O   UNL     1      36.765   8.843 121.049 -2.63 -0.00    +0.000 OA
DOCKED: ATOM     37  H   UNL     1      37.319   9.428 124.145 -0.59 -0.00    +0.000 HD
DOCKED: ENDBRANCH  27  30
DOCKED: ENDBRANCH  22  24
DOCKED: ENDBRANCH  19  21
DOCKED: ENDBRANCH   1  19
DOCKED: TORSDOF 9DOCKED: TER
DOCKED: ENDMDL
________________________________________________________________________________


	BEGINNING GENETIC ALGORITHM DOCKING 13 of 100
Run: 13 Seed: 569885493 882332684 [ Run 13 of 100 GA/GALS ]
Beginning LAMARCKIAN GENETIC ALGORITHM (LGA), with a maximum of 2500000 energy evaluations.

Final-Value: -16.878


	FINAL GENETIC ALGORITHM DOCKED STATE
	_______________________________________________


Detailed state:  trans 35.284 16.246 122.524 quatxyzw -0.307212 0.459853 -0.504292 0.663209 center 1.619 0.086 0.013 ntor 9 107.3885 -29.2984 -175.5351 179.8811 151.4507 -117.3172 -122.0972 -146.6727 163.1090
State:	 35.284  16.246 122.524  -0.410  0.614 -0.674 96.910    107.39  -29.30 -175.54  179.88  151.45 -117.32 -122.10 -146.67  163.11

DOCKED: MODEL       13
DOCKED: USER    Run = 13
DOCKED: USER    DPF = ligand_dock.biased.dpf
DOCKED: USER  
DOCKED: USER    Estimated Free Energy of Binding    =  -12.07 kcal/mol  [=(1)+(2)+(3)-(4)]
DOCKED: USER    Estimated Inhibition Constant, Ki   =    1.43 nM (nanomolar)  [Temperature = 298.15 K]
DOCKED: USER    
DOCKED: USER    (1) Final Intermolecular Energy     =  -14.75 kcal/mol
DOCKED: USER        vdW + Hbond + desolv Energy     =  -14.75 kcal/mol
DOCKED: USER        Electrostatic Energy            =   +0.00 kcal/mol
DOCKED: USER    (2) Final Total Internal Energy     =   -2.13 kcal/mol
DOCKED: USER    (3) Torsional Free Energy           =   +2.68 kcal/mol
DOCKED: USER    (4) Unbound System's Energy  [=(2)] =   -2.13 kcal/mol
DOCKED: USER    
DOCKED: USER    
DOCKED: USER    NEWDPF move ligand.dum.pdbqt
DOCKED: USER    NEWDPF about 1.619000 0.086000 0.013000
DOCKED: USER    NEWDPF tran0 35.283732 16.245622 122.524222
DOCKED: USER    NEWDPF quaternion0 -0.307212 0.459853 -0.504292 0.663209
DOCKED: USER    NEWDPF axisangle0 -0.410472 0.614420 -0.673796 96.909927
DOCKED: USER    NEWDPF quat0 -0.410472 0.614420 -0.673796 96.909927
DOCKED: USER    NEWDPF dihe0 107.39 -29.30 -175.54 179.88 151.45 -117.32 -122.10 -146.67 163.11 
DOCKED: USER  keepresnum = 1 
DOCKED: USER  
DOCKED: REMARK  Name = 
DOCKED: REMARK  11 active torsions:
DOCKED: REMARK  status: ('A' for Active; 'I' for Inactive)
DOCKED: REMARK    1  A    between atoms: C_2  and  O_3
DOCKED: REMARK    2  A    between atoms: O_3  and  C_4
DOCKED: REMARK    3  A    between atoms: C_4  and  C_5
DOCKED: REMARK    4  A    between atoms: C_10  and  C_11
DOCKED: REMARK    5  A    between atoms: C_11  and  N_12
DOCKED: REMARK    6  A    between atoms: N_12  and  C_13
DOCKED: REMARK    7  A    between atoms: N_12  and  C_15
DOCKED: REMARK    8  A    between atoms: C_13  and  C_14
DOCKED: REMARK    9  A    between atoms: C_15  and  C_16
DOCKED: REMARK   10  A    between atoms: N_21  and  C_22
DOCKED: REMARK   11  A    between atoms: C_25  and  C_26
DOCKED: REMARK                            x       y       z     vdW  Elec       q    Type
DOCKED: REMARK                         _______ _______ _______ _____ _____    ______ ____
DOCKED: USER                              x       y       z     vdW  Elec       q    Type
DOCKED: USER                           _______ _______ _______ _____ _____    ______ ____
DOCKED: ROOT
DOCKED: ATOM      1  C   UNL     1      36.322  18.329 121.961 -0.20 -0.00    +0.000 C 
DOCKED: ENDROOT
DOCKED: BRANCH   1   2
DOCKED: ATOM      2  C   UNL     1      36.084  17.619 120.659 -0.17 -0.00    +0.000 A 
DOCKED: ATOM      3  C   UNL     1      36.999  16.666 120.187 -0.14 -0.00    +0.000 A 
DOCKED: ATOM      4  C   UNL     1      36.782  16.020 118.966 -0.16 -0.00    +0.000 A 
DOCKED: ATOM      5  C   UNL     1      35.654  16.330 118.194 -0.14 -0.00    +0.000 A 
DOCKED: ATOM      6  C   UNL     1      35.433  15.694 116.963 -0.18 -0.00    +0.000 A 
DOCKED: ATOM      7  C   UNL     1      34.319  16.033 116.177 -0.14 -0.00    +0.000 A 
DOCKED: ATOM      8  C   UNL     1      33.403  16.984 116.652 -0.13 -0.00    +0.000 A 
DOCKED: ATOM      9  C   UNL     1      33.611  17.617 117.882 -0.13 -0.00    +0.000 A 
DOCKED: ATOM     10  C   UNL     1      34.735  17.301 118.658 -0.03 -0.00    +0.000 A 
DOCKED: ATOM     11  C   UNL     1      34.955  17.938 119.888 -0.20 -0.00    +0.000 A 
DOCKED: ATOM     12  CM  UNL     1      35.869  16.979 119.426 +0.00 -0.00    +0.000 AC
DOCKED: ATOM     13  CM  UNL     1      34.525  16.660 117.421 +0.00 -0.00    +0.000 AC
DOCKED: BRANCH   7  12
DOCKED: ATOM     14  C   UNL     1      34.083  15.337 114.861 -0.16 -0.00    +0.000 C 
DOCKED: BRANCH  12  13
DOCKED: ATOM     15  N   UNL     1      33.057  14.280 114.997 -0.25 -0.00    +0.000 N 
DOCKED: ATOM     16  H   UNL     1      33.481  13.502 114.490 -0.01 -0.00    +0.000 HD
DOCKED: BRANCH  13  15
DOCKED: ATOM     17  C   UNL     1      32.884  13.773 116.375 -0.43 -0.00    +0.000 C 
DOCKED: ATOM     18  C   UNL     1      31.812  12.688 116.502 -0.55 -0.00    +0.000 C 
DOCKED: ENDBRANCH  13  15
DOCKED: BRANCH  13  17
DOCKED: ATOM     19  C   UNL     1      31.798  14.464 114.230 -0.23 -0.00    +0.000 C 
DOCKED: ATOM     20  C   UNL     1      30.884  15.582 114.750 -0.23 -0.00    +0.000 C 
DOCKED: ENDBRANCH  13  17
DOCKED: ENDBRANCH  12  13
DOCKED: ENDBRANCH   7  12
DOCKED: ENDBRANCH   1   2
DOCKED: BRANCH   1  19
DOCKED: ATOM     21  O   UNL     1      35.746  17.573 123.020 -0.27 -0.00    +0.000 OA
DOCKED: BRANCH  19  21
DOCKED: ATOM     22  O   UNL     1      34.528  15.615 123.076 -0.47 -0.00    +0.000 OA
DOCKED: ATOM     23  C   UNL     1      35.654  16.179 122.992 -0.38 -0.00    +0.000 C 
DOCKED: ATOM     24  N   UNL     1      36.857  15.403 122.914 -0.35 -0.00    +0.000 N 
DOCKED: ATOM     25  H   UNL     1      37.717  15.880 122.971 -0.01 -0.00    +0.000 HD
DOCKED: BRANCH  22  24
DOCKED: ATOM     26  C   UNL     1      36.892  13.974 122.758 -0.44 -0.00    +0.000 A 
DOCKED: ATOM     27  C   UNL     1      37.078  13.426 121.481 -0.39 -0.00    +0.000 A 
DOCKED: ATOM     28  C   UNL     1      37.090  12.042 121.296 -0.48 -0.00    +0.000 A 
DOCKED: ATOM     29  C   UNL     1      36.893  11.174 122.386 -0.53 -0.00    +0.000 A 
DOCKED: ATOM     30  C   UNL     1      36.700  11.726 123.666 -0.62 -0.00    +0.000 A 
DOCKED: ATOM     31  C   UNL     1      36.689  13.112 123.848 -0.44 -0.00    +0.000 A 
DOCKED: ATOM     32  CM  UNL     1      36.890  12.575 122.573 +0.00 -0.00    +0.000 AC
DOCKED: BRANCH  27  30
DOCKED: ATOM     33  C   UNL     1      36.900   9.700 122.210 -0.64 -0.00    +0.000 C 
DOCKED: ATOM     34  N   UNL     1      37.080   8.815 123.322 -0.64 -0.00    +0.000 N 
DOCKED: ATOM     35  O   UNL     1      36.979   7.478 123.150 -2.37 -0.00    +0.000 OA
DOCKED: ATOM     36  O   UNL     1      36.759   9.211 121.056 -2.63 +0.00    +0.000 OA
DOCKED: ATOM     37  H   UNL     1      37.277   9.182 124.213 -0.61 -0.00    +0.000 HD
DOCKED: ENDBRANCH  27  30
DOCKED: ENDBRANCH  22  24
DOCKED: ENDBRANCH  19  21
DOCKED: ENDBRANCH   1  19
DOCKED: TORSDOF 9DOCKED: TER
DOCKED: ENDMDL
________________________________________________________________________________


	BEGINNING GENETIC ALGORITHM DOCKING 14 of 100
Run: 14 Seed: 2045285946 252219193 [ Run 14 of 100 GA/GALS ]
Beginning LAMARCKIAN GENETIC ALGORITHM (LGA), with a maximum of 2500000 energy evaluations.

Final-Value: -17.009


	FINAL GENETIC ALGORITHM DOCKED STATE
	_______________________________________________


Detailed state:  trans 38.228 17.329 120.597 quatxyzw 0.920520 -0.087377 0.348667 -0.153099 center 1.619 0.086 0.013 ntor 9 160.9109 89.3147 165.0037 -50.3002 -179.6454 96.4231 170.7652 112.3557 -145.6148
State:	 38.228  17.329 120.597   0.932 -0.088  0.353 -162.387    160.91   89.31  165.00  -50.30 -179.65   96.42  170.77  112.36 -145.61

DOCKED: MODEL       14
DOCKED: USER    Run = 14
DOCKED: USER    DPF = ligand_dock.biased.dpf
DOCKED: USER  
DOCKED: USER    Estimated Free Energy of Binding    =  -12.50 kcal/mol  [=(1)+(2)+(3)-(4)]
DOCKED: USER    Estimated Inhibition Constant, Ki   =  692.22 pM (picomolar)  [Temperature = 298.15 K]
DOCKED: USER    
DOCKED: USER    (1) Final Intermolecular Energy     =  -15.18 kcal/mol
DOCKED: USER        vdW + Hbond + desolv Energy     =  -15.18 kcal/mol
DOCKED: USER        Electrostatic Energy            =   +0.00 kcal/mol
DOCKED: USER    (2) Final Total Internal Energy     =   -1.83 kcal/mol
DOCKED: USER    (3) Torsional Free Energy           =   +2.68 kcal/mol
DOCKED: USER    (4) Unbound System's Energy  [=(2)] =   -1.83 kcal/mol
DOCKED: USER    
DOCKED: USER    
DOCKED: USER    NEWDPF move ligand.dum.pdbqt
DOCKED: USER    NEWDPF about 1.619000 0.086000 0.013000
DOCKED: USER    NEWDPF tran0 38.228124 17.329097 120.597420
DOCKED: USER    NEWDPF quaternion0 0.920520 -0.087377 0.348667 -0.153099
DOCKED: USER    NEWDPF axisangle0 0.931502 -0.088419 0.352827 -162.386910
DOCKED: USER    NEWDPF quat0 0.931502 -0.088419 0.352827 -162.386910
DOCKED: USER    NEWDPF dihe0 160.91 89.31 165.00 -50.30 -179.65 96.42 170.77 112.36 -145.61 
DOCKED: USER  keepresnum = 1 
DOCKED: USER  
DOCKED: REMARK  Name = 
DOCKED: REMARK  11 active torsions:
DOCKED: REMARK  status: ('A' for Active; 'I' for Inactive)
DOCKED: REMARK    1  A    between atoms: C_2  and  O_3
DOCKED: REMARK    2  A    between atoms: O_3  and  C_4
DOCKED: REMARK    3  A    between atoms: C_4  and  C_5
DOCKED: REMARK    4  A    between atoms: C_10  and  C_11
DOCKED: REMARK    5  A    between atoms: C_11  and  N_12
DOCKED: REMARK    6  A    between atoms: N_12  and  C_13
DOCKED: REMARK    7  A    between atoms: N_12  and  C_15
DOCKED: REMARK    8  A    between atoms: C_13  and  C_14
DOCKED: REMARK    9  A    between atoms: C_15  and  C_16
DOCKED: REMARK   10  A    between atoms: N_21  and  C_22
DOCKED: REMARK   11  A    between atoms: C_25  and  C_26
DOCKED: REMARK                            x       y       z     vdW  Elec       q    Type
DOCKED: REMARK                         _______ _______ _______ _____ _____    ______ ____
DOCKED: USER                              x       y       z     vdW  Elec       q    Type
DOCKED: USER                           _______ _______ _______ _____ _____    ______ ____
DOCKED: ROOT
DOCKED: ATOM      1  C   UNL     1      37.138  18.420 122.430 -0.15 -0.00    +0.000 C 
DOCKED: ENDROOT
DOCKED: BRANCH   1   2
DOCKED: ATOM      2  C   UNL     1      36.125  18.357 121.323 -0.18 -0.00    +0.000 A 
DOCKED: ATOM      3  C   UNL     1      36.528  18.434 119.982 -0.12 -0.00    +0.000 A 
DOCKED: ATOM      4  C   UNL     1      35.580  18.393 118.954 -0.13 -0.00    +0.000 A 
DOCKED: ATOM      5  C   UNL     1      34.215  18.289 119.257 -0.23 -0.00    +0.000 A 
DOCKED: ATOM      6  C   UNL     1      33.256  18.257 118.233 -0.18 -0.00    +0.000 A 
DOCKED: ATOM      7  C   UNL     1      31.888  18.188 118.541 -0.27 -0.00    +0.000 A 
DOCKED: ATOM      8  C   UNL     1      31.487  18.108 119.884 -0.39 -0.00    +0.000 A 
DOCKED: ATOM      9  C   UNL     1      32.436  18.131 120.911 -0.22 -0.00    +0.000 A 
DOCKED: ATOM     10  C   UNL     1      33.801  18.226 120.608 -0.31 -0.00    +0.000 A 
DOCKED: ATOM     11  C   UNL     1      34.760  18.259 121.633 -0.28 -0.00    +0.000 A 
DOCKED: ATOM     12  CM  UNL     1      35.169  18.326 120.292 +0.00 -0.00    +0.000 AC
DOCKED: ATOM     13  CM  UNL     1      32.847  18.200 119.572 +0.00 -0.00    +0.000 AC
DOCKED: BRANCH   7  12
DOCKED: ATOM     14  C   UNL     1      30.864  18.143 117.435 -0.21 -0.00    +0.000 C 
DOCKED: BRANCH  12  13
DOCKED: ATOM     15  N   UNL     1      29.916  17.026 117.636 -0.28 -0.00    +0.000 N 
DOCKED: ATOM     16  H   UNL     1      30.310  16.554 118.451 -0.02 -0.00    +0.000 HD
DOCKED: BRANCH  13  15
DOCKED: ATOM     17  C   UNL     1      28.565  17.444 118.067 -0.40 -0.00    +0.000 C 
DOCKED: ATOM     18  C   UNL     1      28.076  16.736 119.333 -0.44 -0.00    +0.000 C 
DOCKED: ENDBRANCH  13  15
DOCKED: BRANCH  13  17
DOCKED: ATOM     19  C   UNL     1      29.947  15.931 116.632 -0.33 -0.00    +0.000 C 
DOCKED: ATOM     20  C   UNL     1      31.348  15.401 116.298 -0.31 -0.00    +0.000 C 
DOCKED: ENDBRANCH  13  17
DOCKED: ENDBRANCH  12  13
DOCKED: ENDBRANCH   7  12
DOCKED: ENDBRANCH   1   2
DOCKED: BRANCH   1  19
DOCKED: ATOM     21  O   UNL     1      38.310  17.715 122.035 -0.12 -0.00    +0.000 OA
DOCKED: BRANCH  19  21
DOCKED: ATOM     22  O   UNL     1      39.359  15.763 121.396 -0.24 -0.00    +0.000 OA
DOCKED: ATOM     23  C   UNL     1      38.346  16.324 121.897 -0.22 -0.00    +0.000 C 
DOCKED: ATOM     24  N   UNL     1      37.201  15.555 122.287 -0.28 -0.00    +0.000 N 
DOCKED: ATOM     25  H   UNL     1      36.390  16.044 122.561 -0.00 -0.00    +0.000 HD
DOCKED: BRANCH  22  24
DOCKED: ATOM     26  C   UNL     1      37.157  14.119 122.308 -0.40 -0.00    +0.000 A 
DOCKED: ATOM     27  C   UNL     1      37.606  13.401 121.190 -0.41 -0.00    +0.000 A 
DOCKED: ATOM     28  C   UNL     1      37.551  12.005 121.172 -0.36 -0.00    +0.000 A 
DOCKED: ATOM     29  C   UNL     1      37.021  11.297 122.267 -0.51 -0.00    +0.000 A 
DOCKED: ATOM     30  C   UNL     1      36.565  12.020 123.384 -0.62 -0.00    +0.000 A 
DOCKED: ATOM     31  C   UNL     1      36.622  13.417 123.400 -0.53 -0.00    +0.000 A 
DOCKED: ATOM     32  CM  UNL     1      37.086  12.710 122.287 +0.00 -0.00    +0.000 AC
DOCKED: BRANCH  27  30
DOCKED: ATOM     33  C   UNL     1      36.951   9.814 122.267 -0.61 -0.00    +0.000 C 
DOCKED: ATOM     34  N   UNL     1      37.190   9.054 123.456 -0.53 -0.00    +0.000 N 
DOCKED: ATOM     35  O   UNL     1      37.019   7.713 123.452 -2.67 -0.00    +0.000 OA
DOCKED: ATOM     36  O   UNL     1      36.689   9.205 121.193 -2.62 -0.00    +0.000 OA
DOCKED: ATOM     37  H   UNL     1      37.481   9.510 124.279 -0.64 -0.00    +0.000 HD
DOCKED: ENDBRANCH  27  30
DOCKED: ENDBRANCH  22  24
DOCKED: ENDBRANCH  19  21
DOCKED: ENDBRANCH   1  19
DOCKED: TORSDOF 9DOCKED: TER
DOCKED: ENDMDL
________________________________________________________________________________


	BEGINNING GENETIC ALGORITHM DOCKING 15 of 100
Run: 15 Seed: 1073242300 708331670 [ Run 15 of 100 GA/GALS ]
Beginning LAMARCKIAN GENETIC ALGORITHM (LGA), with a maximum of 2500000 energy evaluations.

Final-Value: -17.354


	FINAL GENETIC ALGORITHM DOCKED STATE
	_______________________________________________


Detailed state:  trans 36.927 16.452 122.961 quatxyzw 0.549449 0.460369 -0.171617 -0.675807 center 1.619 0.086 0.013 ntor 9 153.6900 72.3288 -7.2031 152.8453 -180.0000 0.8471 79.9876 -120.4988 -177.3857
State:	 36.927  16.452 122.961   0.745  0.625 -0.233 -94.966    153.69   72.33   -7.20  152.85 -180.00    0.85   79.99 -120.50 -177.39

DOCKED: MODEL       15
DOCKED: USER    Run = 15
DOCKED: USER    DPF = ligand_dock.biased.dpf
DOCKED: USER  
DOCKED: USER    Estimated Free Energy of Binding    =  -12.96 kcal/mol  [=(1)+(2)+(3)-(4)]
DOCKED: USER    Estimated Inhibition Constant, Ki   =  313.81 pM (picomolar)  [Temperature = 298.15 K]
DOCKED: USER    
DOCKED: USER    (1) Final Intermolecular Energy     =  -15.65 kcal/mol
DOCKED: USER        vdW + Hbond + desolv Energy     =  -15.65 kcal/mol
DOCKED: USER        Electrostatic Energy            =   +0.00 kcal/mol
DOCKED: USER    (2) Final Total Internal Energy     =   -1.70 kcal/mol
DOCKED: USER    (3) Torsional Free Energy           =   +2.68 kcal/mol
DOCKED: USER    (4) Unbound System's Energy  [=(2)] =   -1.70 kcal/mol
DOCKED: USER    
DOCKED: USER    
DOCKED: USER    NEWDPF move ligand.dum.pdbqt
DOCKED: USER    NEWDPF about 1.619000 0.086000 0.013000
DOCKED: USER    NEWDPF tran0 36.926612 16.451906 122.960840
DOCKED: USER    NEWDPF quaternion0 0.549449 0.460369 -0.171617 -0.675807
DOCKED: USER    NEWDPF axisangle0 0.745441 0.624585 -0.232834 -94.966375
DOCKED: USER    NEWDPF quat0 0.745441 0.624585 -0.232834 -94.966375
DOCKED: USER    NEWDPF dihe0 153.69 72.33 -7.20 152.85 -180.00 0.85 79.99 -120.50 -177.39 
DOCKED: USER  keepresnum = 1 
DOCKED: USER  
DOCKED: REMARK  Name = 
DOCKED: REMARK  11 active torsions:
DOCKED: REMARK  status: ('A' for Active; 'I' for Inactive)
DOCKED: REMARK    1  A    between atoms: C_2  and  O_3
DOCKED: REMARK    2  A    between atoms: O_3  and  C_4
DOCKED: REMARK    3  A    between atoms: C_4  and  C_5
DOCKED: REMARK    4  A    between atoms: C_10  and  C_11
DOCKED: REMARK    5  A    between atoms: C_11  and  N_12
DOCKED: REMARK    6  A    between atoms: N_12  and  C_13
DOCKED: REMARK    7  A    between atoms: N_12  and  C_15
DOCKED: REMARK    8  A    between atoms: C_13  and  C_14
DOCKED: REMARK    9  A    between atoms: C_15  and  C_16
DOCKED: REMARK   10  A    between atoms: N_21  and  C_22
DOCKED: REMARK   11  A    between atoms: C_25  and  C_26
DOCKED: REMARK                            x       y       z     vdW  Elec       q    Type
DOCKED: REMARK                         _______ _______ _______ _____ _____    ______ ____
DOCKED: USER                              x       y       z     vdW  Elec       q    Type
DOCKED: USER                           _______ _______ _______ _____ _____    ______ ____
DOCKED: ROOT
DOCKED: ATOM      1  C   UNL     1      35.854  18.553 122.545 -0.24 -0.00    +0.000 C 
DOCKED: ENDROOT
DOCKED: BRANCH   1   2
DOCKED: ATOM      2  C   UNL     1      35.227  18.007 123.796 -0.29 -0.00    +0.000 A 
DOCKED: ATOM      3  C   UNL     1      34.479  16.822 123.761 -0.43 -0.00    +0.000 A 
DOCKED: ATOM      4  C   UNL     1      33.882  16.327 124.926 -0.27 -0.00    +0.000 A 
DOCKED: ATOM      5  C   UNL     1      34.015  17.021 126.137 -0.36 -0.00    +0.000 A 
DOCKED: ATOM      6  C   UNL     1      33.412  16.537 127.308 -0.37 -0.00    +0.000 A 
DOCKED: ATOM      7  C   UNL     1      33.518  17.253 128.511 -0.28 -0.00    +0.000 A 
DOCKED: ATOM      8  C   UNL     1      34.270  18.438 128.544 -0.14 -0.00    +0.000 A 
DOCKED: ATOM      9  C   UNL     1      34.881  18.924 127.384 -0.15 -0.00    +0.000 A 
DOCKED: ATOM     10  C   UNL     1      34.756  18.226 126.175 -0.25 -0.00    +0.000 A 
DOCKED: ATOM     11  C   UNL     1      35.359  18.710 125.004 -0.23 -0.00    +0.000 A 
DOCKED: ATOM     12  CM  UNL     1      34.620  17.518 124.966 -0.44 -0.00    +0.000 AC
DOCKED: ATOM     13  CM  UNL     1      34.142  17.733 127.343 -0.01 -0.00    +0.000 AC
DOCKED: BRANCH   7  12
DOCKED: ATOM     14  C   UNL     1      32.877  16.721 129.767 -0.32 -0.00    +0.000 C 
DOCKED: BRANCH  12  13
DOCKED: ATOM     15  N   UNL     1      33.844  16.694 130.886 -0.22 -0.00    +0.000 N 
DOCKED: ATOM     16  H   UNL     1      33.397  16.051 131.541 -0.01 -0.00    +0.000 HD
DOCKED: BRANCH  13  15
DOCKED: ATOM     17  C   UNL     1      35.135  16.050 130.559 -0.26 -0.00    +0.000 C 
DOCKED: ATOM     18  C   UNL     1      35.620  15.066 131.626 -0.33 -0.00    +0.000 C 
DOCKED: ENDBRANCH  13  15
DOCKED: BRANCH  13  17
DOCKED: ATOM     19  C   UNL     1      33.944  17.921 131.717 -0.12 -0.00    +0.000 C 
DOCKED: ATOM     20  C   UNL     1      32.643  18.727 131.835 -0.12 -0.00    +0.000 C 
DOCKED: ENDBRANCH  13  17
DOCKED: ENDBRANCH  12  13
DOCKED: ENDBRANCH   7  12
DOCKED: ENDBRANCH   1   2
DOCKED: BRANCH   1  19
DOCKED: ATOM     21  O   UNL     1      36.917  17.697 122.141 -0.16 -0.00    +0.000 OA
DOCKED: BRANCH  19  21
DOCKED: ATOM     22  O   UNL     1      36.279  15.966 120.757 -0.22 -0.00    +0.000 OA
DOCKED: ATOM     23  C   UNL     1      36.735  16.337 121.874 -0.24 -0.00    +0.000 C 
DOCKED: ATOM     24  N   UNL     1      37.028  15.380 122.901 -0.34 -0.00    +0.000 N 
DOCKED: ATOM     25  H   UNL     1      37.267  15.722 123.793 -0.03 -0.00    +0.000 HD
DOCKED: BRANCH  22  24
DOCKED: ATOM     26  C   UNL     1      36.998  13.956 122.714 -0.44 -0.00    +0.000 A 
DOCKED: ATOM     27  C   UNL     1      36.554  13.134 123.760 -0.50 -0.00    +0.000 A 
DOCKED: ATOM     28  C   UNL     1      36.538  11.744 123.616 -0.62 -0.00    +0.000 A 
DOCKED: ATOM     29  C   UNL     1      36.990  11.145 122.425 -0.52 -0.00    +0.000 A 
DOCKED: ATOM     30  C   UNL     1      37.441  11.971 121.379 -0.42 -0.00    +0.000 A 
DOCKED: ATOM     31  C   UNL     1      37.455  13.361 121.526 -0.42 -0.00    +0.000 A 
DOCKED: ATOM     32  CM  UNL     1      36.997  12.552 122.570 +0.00 -0.00    +0.000 AC
DOCKED: BRANCH  27  30
DOCKED: ATOM     33  C   UNL     1      36.984   9.671 122.253 -0.62 -0.00    +0.000 C 
DOCKED: ATOM     34  N   UNL     1      37.137   8.788 123.370 -0.62 -0.00    +0.000 N 
DOCKED: ATOM     35  O   UNL     1      37.025   7.451 123.200 -2.40 -0.00    +0.000 OA
DOCKED: ATOM     36  O   UNL     1      36.856   9.180 121.097 -2.67 -0.00    +0.000 OA
DOCKED: ATOM     37  H   UNL     1      37.325   9.155 124.263 -0.61 -0.00    +0.000 HD
DOCKED: ENDBRANCH  27  30
DOCKED: ENDBRANCH  22  24
DOCKED: ENDBRANCH  19  21
DOCKED: ENDBRANCH   1  19
DOCKED: TORSDOF 9DOCKED: TER
DOCKED: ENDMDL
________________________________________________________________________________


	BEGINNING GENETIC ALGORITHM DOCKING 16 of 100
Run: 16 Seed: 1507524082 358584972 [ Run 16 of 100 GA/GALS ]
Beginning LAMARCKIAN GENETIC ALGORITHM (LGA), with a maximum of 2500000 energy evaluations.

Final-Value: -17.467


	FINAL GENETIC ALGORITHM DOCKED STATE
	_______________________________________________


Detailed state:  trans 37.176 16.500 122.858 quatxyzw -0.422289 -0.454864 0.203462 0.757215 center 1.619 0.086 0.013 ntor 9 114.9439 -47.7956 174.5097 178.3162 -32.6124 158.5200 88.7493 -103.7877 179.6696
State:	 37.176  16.500 122.858  -0.647 -0.696  0.312 81.561    114.94  -47.80  174.51  178.32  -32.61  158.52   88.75 -103.79  179.67

DOCKED: MODEL       16
DOCKED: USER    Run = 16
DOCKED: USER    DPF = ligand_dock.biased.dpf
DOCKED: USER  
DOCKED: USER    Estimated Free Energy of Binding    =  -13.15 kcal/mol  [=(1)+(2)+(3)-(4)]
DOCKED: USER    Estimated Inhibition Constant, Ki   =  227.70 pM (picomolar)  [Temperature = 298.15 K]
DOCKED: USER    
DOCKED: USER    (1) Final Intermolecular Energy     =  -15.84 kcal/mol
DOCKED: USER        vdW + Hbond + desolv Energy     =  -15.84 kcal/mol
DOCKED: USER        Electrostatic Energy            =   +0.00 kcal/mol
DOCKED: USER    (2) Final Total Internal Energy     =   -1.63 kcal/mol
DOCKED: USER    (3) Torsional Free Energy           =   +2.68 kcal/mol
DOCKED: USER    (4) Unbound System's Energy  [=(2)] =   -1.63 kcal/mol
DOCKED: USER    
DOCKED: USER    
DOCKED: USER    NEWDPF move ligand.dum.pdbqt
DOCKED: USER    NEWDPF about 1.619000 0.086000 0.013000
DOCKED: USER    NEWDPF tran0 37.176223 16.499985 122.858372
DOCKED: USER    NEWDPF quaternion0 -0.422289 -0.454864 0.203462 0.757215
DOCKED: USER    NEWDPF axisangle0 -0.646526 -0.696399 0.311501 81.561491
DOCKED: USER    NEWDPF quat0 -0.646526 -0.696399 0.311501 81.561491
DOCKED: USER    NEWDPF dihe0 114.94 -47.80 174.51 178.32 -32.61 158.52 88.75 -103.79 179.67 
DOCKED: USER  keepresnum = 1 
DOCKED: USER  
DOCKED: REMARK  Name = 
DOCKED: REMARK  11 active torsions:
DOCKED: REMARK  status: ('A' for Active; 'I' for Inactive)
DOCKED: REMARK    1  A    between atoms: C_2  and  O_3
DOCKED: REMARK    2  A    between atoms: O_3  and  C_4
DOCKED: REMARK    3  A    between atoms: C_4  and  C_5
DOCKED: REMARK    4  A    between atoms: C_10  and  C_11
DOCKED: REMARK    5  A    between atoms: C_11  and  N_12
DOCKED: REMARK    6  A    between atoms: N_12  and  C_13
DOCKED: REMARK    7  A    between atoms: N_12  and  C_15
DOCKED: REMARK    8  A    between atoms: C_13  and  C_14
DOCKED: REMARK    9  A    between atoms: C_15  and  C_16
DOCKED: REMARK   10  A    between atoms: N_21  and  C_22
DOCKED: REMARK   11  A    between atoms: C_25  and  C_26
DOCKED: REMARK                            x       y       z     vdW  Elec       q    Type
DOCKED: REMARK                         _______ _______ _______ _____ _____    ______ ____
DOCKED: USER                              x       y       z     vdW  Elec       q    Type
DOCKED: USER                           _______ _______ _______ _____ _____    ______ ____
DOCKED: ROOT
DOCKED: ATOM      1  C   UNL     1      35.918  18.279 121.864 -0.23 -0.00    +0.000 C 
DOCKED: ENDROOT
DOCKED: BRANCH   1   2
DOCKED: ATOM      2  C   UNL     1      35.323  18.061 123.225 -0.27 -0.00    +0.000 A 
DOCKED: ATOM      3  C   UNL     1      34.637  16.875 123.524 -0.40 -0.00    +0.000 A 
DOCKED: ATOM      4  C   UNL     1      34.070  16.683 124.787 -0.42 -0.00    +0.000 A 
DOCKED: ATOM      5  C   UNL     1      34.169  17.684 125.765 -0.35 -0.00    +0.000 A 
DOCKED: ATOM      6  C   UNL     1      33.595  17.505 127.032 -0.33 -0.00    +0.000 A 
DOCKED: ATOM      7  C   UNL     1      33.667  18.523 127.997 -0.17 -0.00    +0.000 A 
DOCKED: ATOM      8  C   UNL     1      34.357  19.709 127.697 -0.10 -0.00    +0.000 A 
DOCKED: ATOM      9  C   UNL     1      34.939  19.893 126.440 -0.14 -0.00    +0.000 A 
DOCKED: ATOM     10  C   UNL     1      34.847  18.889 125.465 -0.24 -0.00    +0.000 A 
DOCKED: ATOM     11  C   UNL     1      35.421  19.069 124.197 -0.20 -0.00    +0.000 A 
DOCKED: ATOM     12  CM  UNL     1      34.745  17.876 124.494 -0.39 -0.00    +0.000 AC
DOCKED: ATOM     13  CM  UNL     1      34.262  18.701 126.733 -0.03 -0.00    +0.000 AC
DOCKED: BRANCH   7  12
DOCKED: ATOM     14  C   UNL     1      33.057  18.319 129.360 -0.16 -0.00    +0.000 C 
DOCKED: BRANCH  12  13
DOCKED: ATOM     15  N   UNL     1      31.609  18.620 129.344 -0.19 -0.00    +0.000 N 
DOCKED: ATOM     16  H   UNL     1      31.492  19.156 130.205 +0.00 -0.00    +0.000 HD
DOCKED: BRANCH  13  15
DOCKED: ATOM     17  C   UNL     1      31.192  19.547 128.270 -0.24 -0.00    +0.000 C 
DOCKED: ATOM     18  C   UNL     1      29.729  19.986 128.368 -0.34 -0.00    +0.000 C 
DOCKED: ENDBRANCH  13  15
DOCKED: BRANCH  13  17
DOCKED: ATOM     19  C   UNL     1      30.684  17.484 129.590 -0.44 -0.00    +0.000 C 
DOCKED: ATOM     20  C   UNL     1      30.256  16.717 128.332 -0.42 -0.00    +0.000 C 
DOCKED: ENDBRANCH  13  17
DOCKED: ENDBRANCH  12  13
DOCKED: ENDBRANCH   7  12
DOCKED: ENDBRANCH   1   2
DOCKED: BRANCH   1  19
DOCKED: ATOM     21  O   UNL     1      37.064  17.449 121.714 -0.15 -0.00    +0.000 OA
DOCKED: BRANCH  19  21
DOCKED: ATOM     22  O   UNL     1      36.907  15.599 120.344 -0.23 -0.00    +0.000 OA
DOCKED: ATOM     23  C   UNL     1      36.978  16.068 121.514 -0.23 -0.00    +0.000 C 
DOCKED: ATOM     24  N   UNL     1      36.924  15.201 122.655 -0.34 -0.00    +0.000 N 
DOCKED: ATOM     25  H   UNL     1      36.862  15.617 123.546 -0.02 -0.00    +0.000 HD
DOCKED: BRANCH  22  24
DOCKED: ATOM     26  C   UNL     1      36.956  13.766 122.585 -0.44 -0.00    +0.000 A 
DOCKED: ATOM     27  C   UNL     1      37.326  13.143 121.384 -0.43 -0.00    +0.000 A 
DOCKED: ATOM     28  C   UNL     1      37.340  11.750 121.280 -0.41 -0.00    +0.000 A 
DOCKED: ATOM     29  C   UNL     1      36.960  10.949 122.373 -0.51 -0.00    +0.000 A 
DOCKED: ATOM     30  C   UNL     1      36.582  11.576 123.575 -0.62 -0.00    +0.000 A 
DOCKED: ATOM     31  C   UNL     1      36.570  12.970 123.676 -0.53 -0.00    +0.000 A 
DOCKED: ATOM     32  CM  UNL     1      36.955  12.358 122.479 +0.00 -0.00    +0.000 AC
DOCKED: BRANCH  27  30
DOCKED: ATOM     33  C   UNL     1      36.966   9.467 122.282 -0.64 -0.00    +0.000 C 
DOCKED: ATOM     34  N   UNL     1      37.166   8.648 123.439 -0.63 -0.00    +0.000 N 
DOCKED: ATOM     35  O   UNL     1      37.064   7.302 123.346 -2.35 -0.00    +0.000 OA
DOCKED: ATOM     36  O   UNL     1      36.805   8.913 121.160 -2.64 -0.00    +0.000 OA
DOCKED: ATOM     37  H   UNL     1      37.379   9.066 124.305 -0.61 -0.00    +0.000 HD
DOCKED: ENDBRANCH  27  30
DOCKED: ENDBRANCH  22  24
DOCKED: ENDBRANCH  19  21
DOCKED: ENDBRANCH   1  19
DOCKED: TORSDOF 9DOCKED: TER
DOCKED: ENDMDL
________________________________________________________________________________


	BEGINNING GENETIC ALGORITHM DOCKING 17 of 100
Run: 17 Seed: 944752663 1907471174 [ Run 17 of 100 GA/GALS ]
Beginning LAMARCKIAN GENETIC ALGORITHM (LGA), with a maximum of 2500000 energy evaluations.

Final-Value: -15.654


	FINAL GENETIC ALGORITHM DOCKED STATE
	_______________________________________________


Detailed state:  trans 38.098 17.216 121.989 quatxyzw 0.588922 -0.070064 0.799526 -0.094974 center 1.619 0.086 0.013 ntor 9 12.8112 139.3040 178.6289 77.2755 133.0823 6.9274 -166.4774 112.7049 180.0000
State:	 38.098  17.216 121.989   0.592 -0.070  0.803 -169.100     12.81  139.30  178.63   77.28  133.08    6.93 -166.48  112.70  180.00

DOCKED: MODEL       17
DOCKED: USER    Run = 17
DOCKED: USER    DPF = ligand_dock.biased.dpf
DOCKED: USER  
DOCKED: USER    Estimated Free Energy of Binding    =  -11.14 kcal/mol  [=(1)+(2)+(3)-(4)]
DOCKED: USER    Estimated Inhibition Constant, Ki   =    6.80 nM (nanomolar)  [Temperature = 298.15 K]
DOCKED: USER    
DOCKED: USER    (1) Final Intermolecular Energy     =  -13.83 kcal/mol
DOCKED: USER        vdW + Hbond + desolv Energy     =  -13.83 kcal/mol
DOCKED: USER        Electrostatic Energy            =   +0.00 kcal/mol
DOCKED: USER    (2) Final Total Internal Energy     =   -1.83 kcal/mol
DOCKED: USER    (3) Torsional Free Energy           =   +2.68 kcal/mol
DOCKED: USER    (4) Unbound System's Energy  [=(2)] =   -1.83 kcal/mol
DOCKED: USER    
DOCKED: USER    
DOCKED: USER    NEWDPF move ligand.dum.pdbqt
DOCKED: USER    NEWDPF about 1.619000 0.086000 0.013000
DOCKED: USER    NEWDPF tran0 38.097571 17.215781 121.989062
DOCKED: USER    NEWDPF quaternion0 0.588922 -0.070064 0.799526 -0.094974
DOCKED: USER    NEWDPF axisangle0 0.591596 -0.070383 0.803156 -169.100302
DOCKED: USER    NEWDPF quat0 0.591596 -0.070383 0.803156 -169.100302
DOCKED: USER    NEWDPF dihe0 12.81 139.30 178.63 77.28 133.08 6.93 -166.48 112.70 180.00 
DOCKED: USER  keepresnum = 1 
DOCKED: USER  
DOCKED: REMARK  Name = 
DOCKED: REMARK  11 active torsions:
DOCKED: REMARK  status: ('A' for Active; 'I' for Inactive)
DOCKED: REMARK    1  A    between atoms: C_2  and  O_3
DOCKED: REMARK    2  A    between atoms: O_3  and  C_4
DOCKED: REMARK    3  A    between atoms: C_4  and  C_5
DOCKED: REMARK    4  A    between atoms: C_10  and  C_11
DOCKED: REMARK    5  A    between atoms: C_11  and  N_12
DOCKED: REMARK    6  A    between atoms: N_12  and  C_13
DOCKED: REMARK    7  A    between atoms: N_12  and  C_15
DOCKED: REMARK    8  A    between atoms: C_13  and  C_14
DOCKED: REMARK    9  A    between atoms: C_15  and  C_16
DOCKED: REMARK   10  A    between atoms: N_21  and  C_22
DOCKED: REMARK   11  A    between atoms: C_25  and  C_26
DOCKED: REMARK                            x       y       z     vdW  Elec       q    Type
DOCKED: REMARK                         _______ _______ _______ _____ _____    ______ ____
DOCKED: USER                              x       y       z     vdW  Elec       q    Type
DOCKED: USER                           _______ _______ _______ _____ _____    ______ ____
DOCKED: ROOT
DOCKED: ATOM      1  C   UNL     1      35.893  18.083 121.635 -0.24 -0.00    +0.000 C 
DOCKED: ENDROOT
DOCKED: BRANCH   1   2
DOCKED: ATOM      2  C   UNL     1      36.474  17.856 120.269 -0.13 -0.00    +0.000 A 
DOCKED: ATOM      3  C   UNL     1      37.556  18.625 119.816 -0.05 -0.00    +0.000 A 
DOCKED: ATOM      4  C   UNL     1      38.082  18.422 118.536 -0.03 -0.00    +0.000 A 
DOCKED: ATOM      5  C   UNL     1      37.522  17.456 117.688 -0.05 -0.00    +0.000 A 
DOCKED: ATOM      6  C   UNL     1      38.037  17.252 116.399 -0.05 -0.00    +0.000 A 
DOCKED: ATOM      7  C   UNL     1      37.451  16.308 115.539 -0.08 -0.00    +0.000 A 
DOCKED: ATOM      8  C   UNL     1      36.370  15.537 115.996 -0.14 -0.00    +0.000 A 
DOCKED: ATOM      9  C   UNL     1      35.856  15.728 117.282 -0.17 -0.00    +0.000 A 
DOCKED: ATOM     10  C   UNL     1      36.421  16.687 118.134 -0.12 -0.00    +0.000 A 
DOCKED: ATOM     11  C   UNL     1      35.905  16.891 119.422 -0.13 -0.00    +0.000 A 
DOCKED: ATOM     12  CM  UNL     1      36.993  17.656 118.978 +0.00 -0.00    +0.000 AC
DOCKED: ATOM     13  CM  UNL     1      36.942  16.494 116.839 +0.00 -0.00    +0.000 AC
DOCKED: BRANCH   7  12
DOCKED: ATOM     14  C   UNL     1      38.018  16.086 114.160 -0.13 -0.00    +0.000 C 
DOCKED: BRANCH  12  13
DOCKED: ATOM     15  N   UNL     1      39.181  15.173 114.205 -0.23 -0.00    +0.000 N 
DOCKED: ATOM     16  H   UNL     1      38.890  14.424 113.575 -0.01 -0.00    +0.000 HD
DOCKED: BRANCH  13  15
DOCKED: ATOM     17  C   UNL     1      40.408  15.720 113.587 -0.14 -0.00    +0.000 C 
DOCKED: ATOM     18  C   UNL     1      41.237  16.592 114.533 -0.19 -0.00    +0.000 C 
DOCKED: ENDBRANCH  13  15
DOCKED: BRANCH  13  17
DOCKED: ATOM     19  C   UNL     1      39.392  14.417 115.466 -0.40 -0.00    +0.000 C 
DOCKED: ATOM     20  C   UNL     1      38.849  12.982 115.456 -0.56 -0.00    +0.000 C 
DOCKED: ENDBRANCH  13  17
DOCKED: ENDBRANCH  12  13
DOCKED: ENDBRANCH   7  12
DOCKED: ENDBRANCH   1   2
DOCKED: BRANCH   1  19
DOCKED: ATOM     21  O   UNL     1      36.800  17.596 122.618 -0.19 -0.00    +0.000 OA
DOCKED: BRANCH  19  21
DOCKED: ATOM     22  O   UNL     1      37.650  15.835 123.842 -0.36 -0.00    +0.000 OA
DOCKED: ATOM     23  C   UNL     1      37.062  16.235 122.800 -0.30 -0.00    +0.000 C 
DOCKED: ATOM     24  N   UNL     1      36.694  15.312 121.766 -0.26 -0.00    +0.000 N 
DOCKED: ATOM     25  H   UNL     1      36.346  15.681 120.921 -0.01 -0.00    +0.000 HD
DOCKED: BRANCH  22  24
DOCKED: ATOM     26  C   UNL     1      36.797  13.883 121.880 -0.28 -0.00    +0.000 A 
DOCKED: ATOM     27  C   UNL     1      37.278  13.138 120.793 -0.41 -0.00    +0.000 A 
DOCKED: ATOM     28  C   UNL     1      37.365  11.746 120.868 -0.44 -0.00    +0.000 A 
DOCKED: ATOM     29  C   UNL     1      36.949  11.066 122.028 -0.50 -0.00    +0.000 A 
DOCKED: ATOM     30  C   UNL     1      36.461  11.814 123.114 -0.61 -0.00    +0.000 A 
DOCKED: ATOM     31  C   UNL     1      36.376  13.207 123.037 -0.51 -0.00    +0.000 A 
DOCKED: ATOM     32  CM  UNL     1      36.871  12.475 121.954 +0.00 -0.00    +0.000 AC
DOCKED: BRANCH  27  30
DOCKED: ATOM     33  C   UNL     1      37.031   9.586 122.125 -0.61 -0.00    +0.000 C 
DOCKED: ATOM     34  N   UNL     1      37.102   8.924 123.393 -0.60 -0.00    +0.000 N 
DOCKED: ATOM     35  O   UNL     1      37.072   7.573 123.457 -2.59 -0.00    +0.000 OA
DOCKED: ATOM     36  O   UNL     1      37.052   8.894 121.071 -2.70 -0.00    +0.000 OA
DOCKED: ATOM     37  H   UNL     1      37.175   9.454 124.219 -0.60 -0.00    +0.000 HD
DOCKED: ENDBRANCH  27  30
DOCKED: ENDBRANCH  22  24
DOCKED: ENDBRANCH  19  21
DOCKED: ENDBRANCH   1  19
DOCKED: TORSDOF 9DOCKED: TER
DOCKED: ENDMDL
________________________________________________________________________________


	BEGINNING GENETIC ALGORITHM DOCKING 18 of 100
Run: 18 Seed: 66211636 212670839 [ Run 18 of 100 GA/GALS ]
Beginning LAMARCKIAN GENETIC ALGORITHM (LGA), with a maximum of 2500000 energy evaluations.

Final-Value: -16.486


	FINAL GENETIC ALGORITHM DOCKED STATE
	_______________________________________________


Detailed state:  trans 34.545 16.077 122.924 quatxyzw 0.296442 -0.550438 0.475136 -0.619182 center 1.619 0.086 0.013 ntor 9 -170.6707 157.3236 166.8591 -41.4625 76.1116 -93.8710 -142.3902 -134.9322 -180.0000
State:	 34.545  16.077 122.924   0.378 -0.701  0.605 -103.487   -170.67  157.32  166.86  -41.46   76.11  -93.87 -142.39 -134.93 -180.00

DOCKED: MODEL       18
DOCKED: USER    Run = 18
DOCKED: USER    DPF = ligand_dock.biased.dpf
DOCKED: USER  
DOCKED: USER    Estimated Free Energy of Binding    =  -12.38 kcal/mol  [=(1)+(2)+(3)-(4)]
DOCKED: USER    Estimated Inhibition Constant, Ki   =  837.48 pM (picomolar)  [Temperature = 298.15 K]
DOCKED: USER    
DOCKED: USER    (1) Final Intermolecular Energy     =  -15.07 kcal/mol
DOCKED: USER        vdW + Hbond + desolv Energy     =  -15.07 kcal/mol
DOCKED: USER        Electrostatic Energy            =   +0.00 kcal/mol
DOCKED: USER    (2) Final Total Internal Energy     =   -1.42 kcal/mol
DOCKED: USER    (3) Torsional Free Energy           =   +2.68 kcal/mol
DOCKED: USER    (4) Unbound System's Energy  [=(2)] =   -1.42 kcal/mol
DOCKED: USER    
DOCKED: USER    
DOCKED: USER    NEWDPF move ligand.dum.pdbqt
DOCKED: USER    NEWDPF about 1.619000 0.086000 0.013000
DOCKED: USER    NEWDPF tran0 34.545270 16.076882 122.923521
DOCKED: USER    NEWDPF quaternion0 0.296442 -0.550438 0.475136 -0.619182
DOCKED: USER    NEWDPF axisangle0 0.377515 -0.700973 0.605078 -103.487185
DOCKED: USER    NEWDPF quat0 0.377515 -0.700973 0.605078 -103.487185
DOCKED: USER    NEWDPF dihe0 -170.67 157.32 166.86 -41.46 76.11 -93.87 -142.39 -134.93 -180.00 
DOCKED: USER  keepresnum = 1 
DOCKED: USER  
DOCKED: REMARK  Name = 
DOCKED: REMARK  11 active torsions:
DOCKED: REMARK  status: ('A' for Active; 'I' for Inactive)
DOCKED: REMARK    1  A    between atoms: C_2  and  O_3
DOCKED: REMARK    2  A    between atoms: O_3  and  C_4
DOCKED: REMARK    3  A    between atoms: C_4  and  C_5
DOCKED: REMARK    4  A    between atoms: C_10  and  C_11
DOCKED: REMARK    5  A    between atoms: C_11  and  N_12
DOCKED: REMARK    6  A    between atoms: N_12  and  C_13
DOCKED: REMARK    7  A    between atoms: N_12  and  C_15
DOCKED: REMARK    8  A    between atoms: C_13  and  C_14
DOCKED: REMARK    9  A    between atoms: C_15  and  C_16
DOCKED: REMARK   10  A    between atoms: N_21  and  C_22
DOCKED: REMARK   11  A    between atoms: C_25  and  C_26
DOCKED: REMARK                            x       y       z     vdW  Elec       q    Type
DOCKED: REMARK                         _______ _______ _______ _____ _____    ______ ____
DOCKED: USER                              x       y       z     vdW  Elec       q    Type
DOCKED: USER                           _______ _______ _______ _____ _____    ______ ____
DOCKED: ROOT
DOCKED: ATOM      1  C   UNL     1      35.761  18.138 122.807 -0.26 -0.00    +0.000 C 
DOCKED: ENDROOT
DOCKED: BRANCH   1   2
DOCKED: ATOM      2  C   UNL     1      35.695  17.615 121.401 -0.22 -0.00    +0.000 A 
DOCKED: ATOM      3  C   UNL     1      36.371  16.439 121.043 -0.17 -0.00    +0.000 A 
DOCKED: ATOM      4  C   UNL     1      36.321  15.965 119.728 -0.11 -0.00    +0.000 A 
DOCKED: ATOM      5  C   UNL     1      35.605  16.671 118.751 -0.10 -0.00    +0.000 A 
DOCKED: ATOM      6  C   UNL     1      35.558  16.209 117.427 -0.15 -0.00    +0.000 A 
DOCKED: ATOM      7  C   UNL     1      34.869  16.937 116.443 -0.09 -0.00    +0.000 A 
DOCKED: ATOM      8  C   UNL     1      34.190  18.111 116.803 -0.08 -0.00    +0.000 A 
DOCKED: ATOM      9  C   UNL     1      34.225  18.575 118.122 -0.15 -0.00    +0.000 A 
DOCKED: ATOM     10  C   UNL     1      34.934  17.866 119.102 -0.17 -0.00    +0.000 A 
DOCKED: ATOM     11  C   UNL     1      34.982  18.329 120.425 -0.24 -0.00    +0.000 A 
DOCKED: ATOM     12  CM  UNL     1      35.651  17.147 120.075 +0.00 -0.00    +0.000 AC
DOCKED: ATOM     13  CM  UNL     1      34.897  17.395 117.774 +0.00 -0.00    +0.000 AC
DOCKED: BRANCH   7  12
DOCKED: ATOM     14  C   UNL     1      34.812  16.427 115.025 -0.08 -0.00    +0.000 C 
DOCKED: BRANCH  12  13
DOCKED: ATOM     15  N   UNL     1      34.985  14.959 114.982 -0.17 -0.00    +0.000 N 
DOCKED: ATOM     16  H   UNL     1      35.030  14.719 115.974 -0.00 -0.00    +0.000 HD
DOCKED: BRANCH  13  15
DOCKED: ATOM     17  C   UNL     1      33.807  14.222 114.477 -0.26 -0.00    +0.000 C 
DOCKED: ATOM     18  C   UNL     1      32.922  13.641 115.583 -0.40 -0.00    +0.000 C 
DOCKED: ENDBRANCH  13  15
DOCKED: BRANCH  13  17
DOCKED: ATOM     19  C   UNL     1      36.298  14.451 114.508 -0.26 -0.00    +0.000 C 
DOCKED: ATOM     20  C   UNL     1      37.108  13.677 115.557 -0.38 -0.00    +0.000 C 
DOCKED: ENDBRANCH  13  17
DOCKED: ENDBRANCH  12  13
DOCKED: ENDBRANCH   7  12
DOCKED: ENDBRANCH   1   2
DOCKED: BRANCH   1  19
DOCKED: ATOM     21  O   UNL     1      34.989  17.296 123.657 -0.37 -0.00    +0.000 OA
DOCKED: BRANCH  19  21
DOCKED: ATOM     22  O   UNL     1      33.964  15.231 123.726 -0.68 -0.00    +0.000 OA
DOCKED: ATOM     23  C   UNL     1      35.022  15.901 123.575 -0.50 -0.00    +0.000 C 
DOCKED: ATOM     24  N   UNL     1      36.280  15.246 123.363 -0.42 -0.00    +0.000 N 
DOCKED: ATOM     25  H   UNL     1      37.095  15.800 123.370 -0.01 -0.00    +0.000 HD
DOCKED: BRANCH  22  24
DOCKED: ATOM     26  C   UNL     1      36.432  13.834 123.141 -0.48 -0.00    +0.000 A 
DOCKED: ATOM     27  C   UNL     1      37.035  13.385 121.958 -0.42 -0.00    +0.000 A 
DOCKED: ATOM     28  C   UNL     1      37.171  12.018 121.704 -0.47 -0.00    +0.000 A 
DOCKED: ATOM     29  C   UNL     1      36.685  11.069 122.622 -0.59 -0.00    +0.000 A 
DOCKED: ATOM     30  C   UNL     1      36.075  11.522 123.806 -0.58 -0.00    +0.000 A 
DOCKED: ATOM     31  C   UNL     1      35.940  12.890 124.058 -0.40 -0.00    +0.000 A 
DOCKED: ATOM     32  CM  UNL     1      36.556  12.453 122.882 +0.00 -0.00    +0.000 AC
DOCKED: BRANCH  27  30
DOCKED: ATOM     33  C   UNL     1      36.818   9.612 122.369 -0.67 -0.00    +0.000 C 
DOCKED: ATOM     34  N   UNL     1      37.056   8.687 123.437 -0.64 -0.00    +0.000 N 
DOCKED: ATOM     35  O   UNL     1      37.070   7.357 123.193 -2.36 -0.00    +0.000 OA
DOCKED: ATOM     36  O   UNL     1      36.735   9.176 121.189 -2.64 -0.00    +0.000 OA
DOCKED: ATOM     37  H   UNL     1      37.210   9.021 124.349 -0.56 -0.00    +0.000 HD
DOCKED: ENDBRANCH  27  30
DOCKED: ENDBRANCH  22  24
DOCKED: ENDBRANCH  19  21
DOCKED: ENDBRANCH   1  19
DOCKED: TORSDOF 9DOCKED: TER
DOCKED: ENDMDL
________________________________________________________________________________


	BEGINNING GENETIC ALGORITHM DOCKING 19 of 100
Run: 19 Seed: 650713402 1202858191 [ Run 19 of 100 GA/GALS ]
Beginning LAMARCKIAN GENETIC ALGORITHM (LGA), with a maximum of 2500000 energy evaluations.

Final-Value: -16.101


	FINAL GENETIC ALGORITHM DOCKED STATE
	_______________________________________________


Detailed state:  trans 36.888 17.458 123.346 quatxyzw 0.465765 0.077876 -0.879555 -0.058145 center 1.619 0.086 0.013 ntor 9 -107.0960 -63.8859 -176.4981 97.0616 133.9128 -169.9421 -123.3961 95.6257 25.1854
State:	 36.888  17.458 123.346   0.467  0.078 -0.881 -173.333   -107.10  -63.89 -176.50   97.06  133.91 -169.94 -123.40   95.63   25.19

DOCKED: MODEL       19
DOCKED: USER    Run = 19
DOCKED: USER    DPF = ligand_dock.biased.dpf
DOCKED: USER  
DOCKED: USER    Estimated Free Energy of Binding    =  -11.49 kcal/mol  [=(1)+(2)+(3)-(4)]
DOCKED: USER    Estimated Inhibition Constant, Ki   =    3.79 nM (nanomolar)  [Temperature = 298.15 K]
DOCKED: USER    
DOCKED: USER    (1) Final Intermolecular Energy     =  -14.17 kcal/mol
DOCKED: USER        vdW + Hbond + desolv Energy     =  -14.17 kcal/mol
DOCKED: USER        Electrostatic Energy            =   +0.00 kcal/mol
DOCKED: USER    (2) Final Total Internal Energy     =   -1.93 kcal/mol
DOCKED: USER    (3) Torsional Free Energy           =   +2.68 kcal/mol
DOCKED: USER    (4) Unbound System's Energy  [=(2)] =   -1.93 kcal/mol
DOCKED: USER    
DOCKED: USER    
DOCKED: USER    NEWDPF move ligand.dum.pdbqt
DOCKED: USER    NEWDPF about 1.619000 0.086000 0.013000
DOCKED: USER    NEWDPF tran0 36.888066 17.457779 123.345839
DOCKED: USER    NEWDPF quaternion0 0.465765 0.077876 -0.879555 -0.058145
DOCKED: USER    NEWDPF axisangle0 0.466554 0.078008 -0.881046 -173.333315
DOCKED: USER    NEWDPF quat0 0.466554 0.078008 -0.881046 -173.333315
DOCKED: USER    NEWDPF dihe0 -107.10 -63.89 -176.50 97.06 133.91 -169.94 -123.40 95.63 25.19 
DOCKED: USER  keepresnum = 1 
DOCKED: USER  
DOCKED: REMARK  Name = 
DOCKED: REMARK  11 active torsions:
DOCKED: REMARK  status: ('A' for Active; 'I' for Inactive)
DOCKED: REMARK    1  A    between atoms: C_2  and  O_3
DOCKED: REMARK    2  A    between atoms: O_3  and  C_4
DOCKED: REMARK    3  A    between atoms: C_4  and  C_5
DOCKED: REMARK    4  A    between atoms: C_10  and  C_11
DOCKED: REMARK    5  A    between atoms: C_11  and  N_12
DOCKED: REMARK    6  A    between atoms: N_12  and  C_13
DOCKED: REMARK    7  A    between atoms: N_12  and  C_15
DOCKED: REMARK    8  A    between atoms: C_13  and  C_14
DOCKED: REMARK    9  A    between atoms: C_15  and  C_16
DOCKED: REMARK   10  A    between atoms: N_21  and  C_22
DOCKED: REMARK   11  A    between atoms: C_25  and  C_26
DOCKED: REMARK                            x       y       z     vdW  Elec       q    Type
DOCKED: REMARK                         _______ _______ _______ _____ _____    ______ ____
DOCKED: USER                              x       y       z     vdW  Elec       q    Type
DOCKED: USER                           _______ _______ _______ _____ _____    ______ ____
DOCKED: ROOT
DOCKED: ATOM      1  C   UNL     1      38.532  18.215 121.777 -0.09 -0.00    +0.000 C 
DOCKED: ENDROOT
DOCKED: BRANCH   1   2
DOCKED: ATOM      2  C   UNL     1      39.229  18.141 123.105 -0.14 -0.00    +0.000 A 
DOCKED: ATOM      3  C   UNL     1      40.530  17.626 123.200 -0.22 -0.00    +0.000 A 
DOCKED: ATOM      4  C   UNL     1      41.169  17.542 124.442 -0.28 -0.00    +0.000 A 
DOCKED: ATOM      5  C   UNL     1      40.507  17.959 125.606 -0.27 -0.00    +0.000 A 
DOCKED: ATOM      6  C   UNL     1      41.137  17.870 126.857 -0.35 -0.00    +0.000 A 
DOCKED: ATOM      7  C   UNL     1      40.458  18.256 128.024 -0.34 -0.00    +0.000 A 
DOCKED: ATOM      8  C   UNL     1      39.157  18.774 127.926 -0.19 -0.00    +0.000 A 
DOCKED: ATOM      9  C   UNL     1      38.525  18.875 126.682 -0.13 -0.00    +0.000 A 
DOCKED: ATOM     10  C   UNL     1      39.189  18.466 125.518 -0.19 -0.00    +0.000 A 
DOCKED: ATOM     11  C   UNL     1      38.559  18.554 124.267 -0.16 -0.00    +0.000 A 
DOCKED: ATOM     12  CM  UNL     1      39.864  18.048 124.356 +0.00 -0.00    +0.000 AC
DOCKED: ATOM     13  CM  UNL     1      39.829  18.366 126.769 +0.00 -0.00    +0.000 AC
DOCKED: BRANCH   7  12
DOCKED: ATOM     14  C   UNL     1      41.145  18.168 129.363 -0.37 -0.00    +0.000 C 
DOCKED: BRANCH  12  13
DOCKED: ATOM     15  N   UNL     1      41.992  19.357 129.604 -0.17 -0.00    +0.000 N 
DOCKED: ATOM     16  H   UNL     1      41.852  19.520 130.602 +0.00 -0.00    +0.000 HD
DOCKED: BRANCH  13  15
DOCKED: ATOM     17  C   UNL     1      43.443  19.108 129.468 -0.23 -0.00    +0.000 C 
DOCKED: ATOM     18  C   UNL     1      43.876  17.718 129.937 -0.41 -0.00    +0.000 C 
DOCKED: ENDBRANCH  13  15
DOCKED: BRANCH  13  17
DOCKED: ATOM     19  C   UNL     1      41.516  20.645 129.037 -0.09 -0.00    +0.000 C 
DOCKED: ATOM     20  C   UNL     1      42.282  21.125 127.796 -0.12 -0.00    +0.000 C 
DOCKED: ENDBRANCH  13  17
DOCKED: ENDBRANCH  12  13
DOCKED: ENDBRANCH   7  12
DOCKED: ENDBRANCH   1   2
DOCKED: BRANCH   1  19
DOCKED: ATOM     21  O   UNL     1      37.210  17.704 121.911 -0.14 -0.00    +0.000 OA
DOCKED: BRANCH  19  21
DOCKED: ATOM     22  O   UNL     1      36.073  15.954 120.928 -0.17 -0.00    +0.000 OA
DOCKED: ATOM     23  C   UNL     1      36.909  16.344 121.789 -0.23 -0.00    +0.000 C 
DOCKED: ATOM     24  N   UNL     1      37.527  15.411 122.685 -0.32 -0.00    +0.000 N 
DOCKED: ATOM     25  H   UNL     1      38.080  15.772 123.416 -0.02 -0.00    +0.000 HD
DOCKED: BRANCH  22  24
DOCKED: ATOM     26  C   UNL     1      37.395  13.983 122.587 -0.43 -0.00    +0.000 A 
DOCKED: ATOM     27  C   UNL     1      37.522  13.364 121.335 -0.41 -0.00    +0.000 A 
DOCKED: ATOM     28  C   UNL     1      37.373  11.981 121.206 -0.44 -0.00    +0.000 A 
DOCKED: ATOM     29  C   UNL     1      37.069  11.189 122.328 -0.49 -0.00    +0.000 A 
DOCKED: ATOM     30  C   UNL     1      36.935  11.812 123.582 -0.60 -0.00    +0.000 A 
DOCKED: ATOM     31  C   UNL     1      37.086  13.196 123.709 -0.38 -0.00    +0.000 A 
DOCKED: ATOM     32  CM  UNL     1      37.230  12.587 122.458 +0.00 -0.00    +0.000 AC
DOCKED: BRANCH  27  30
DOCKED: ATOM     33  C   UNL     1      36.903   9.718 122.212 -0.63 -0.00    +0.000 C 
DOCKED: ATOM     34  N   UNL     1      36.992   8.863 123.357 -0.63 -0.00    +0.000 N 
DOCKED: ATOM     35  O   UNL     1      36.735   7.540 123.240 -2.31 -0.00    +0.000 OA
DOCKED: ATOM     36  O   UNL     1      36.694   9.204 121.079 -2.61 +0.00    +0.000 OA
DOCKED: ATOM     37  H   UNL     1      37.241   9.239 124.232 -0.60 -0.00    +0.000 HD
DOCKED: ENDBRANCH  27  30
DOCKED: ENDBRANCH  22  24
DOCKED: ENDBRANCH  19  21
DOCKED: ENDBRANCH   1  19
DOCKED: TORSDOF 9DOCKED: TER
DOCKED: ENDMDL
________________________________________________________________________________


	BEGINNING GENETIC ALGORITHM DOCKING 20 of 100
Run: 20 Seed: 1502013138 22639932 [ Run 20 of 100 GA/GALS ]
Beginning LAMARCKIAN GENETIC ALGORITHM (LGA), with a maximum of 2500000 energy evaluations.

Final-Value: -16.368


	FINAL GENETIC ALGORITHM DOCKED STATE
	_______________________________________________


Detailed state:  trans 35.225 16.533 122.504 quatxyzw -0.494154 0.415623 -0.312439 0.696743 center 1.619 0.086 0.013 ntor 9 127.9702 -43.0490 -12.4820 164.2506 156.8070 9.4000 -33.6027 -133.4927 133.3889
State:	 35.225  16.533 122.504  -0.689  0.579 -0.436 91.667    127.97  -43.05  -12.48  164.25  156.81    9.40  -33.60 -133.49  133.39

DOCKED: MODEL       20
DOCKED: USER    Run = 20
DOCKED: USER    DPF = ligand_dock.biased.dpf
DOCKED: USER  
DOCKED: USER    Estimated Free Energy of Binding    =  -12.24 kcal/mol  [=(1)+(2)+(3)-(4)]
DOCKED: USER    Estimated Inhibition Constant, Ki   =    1.07 nM (nanomolar)  [Temperature = 298.15 K]
DOCKED: USER    
DOCKED: USER    (1) Final Intermolecular Energy     =  -14.92 kcal/mol
DOCKED: USER        vdW + Hbond + desolv Energy     =  -14.92 kcal/mol
DOCKED: USER        Electrostatic Energy            =   +0.00 kcal/mol
DOCKED: USER    (2) Final Total Internal Energy     =   -1.45 kcal/mol
DOCKED: USER    (3) Torsional Free Energy           =   +2.68 kcal/mol
DOCKED: USER    (4) Unbound System's Energy  [=(2)] =   -1.45 kcal/mol
DOCKED: USER    
DOCKED: USER    
DOCKED: USER    NEWDPF move ligand.dum.pdbqt
DOCKED: USER    NEWDPF about 1.619000 0.086000 0.013000
DOCKED: USER    NEWDPF tran0 35.224668 16.532835 122.503693
DOCKED: USER    NEWDPF quaternion0 -0.494154 0.415623 -0.312439 0.696743
DOCKED: USER    NEWDPF axisangle0 -0.688889 0.579411 -0.435563 91.667438
DOCKED: USER    NEWDPF quat0 -0.688889 0.579411 -0.435563 91.667438
DOCKED: USER    NEWDPF dihe0 127.97 -43.05 -12.48 164.25 156.81 9.40 -33.60 -133.49 133.39 
DOCKED: USER  keepresnum = 1 
DOCKED: USER  
DOCKED: REMARK  Name = 
DOCKED: REMARK  11 active torsions:
DOCKED: REMARK  status: ('A' for Active; 'I' for Inactive)
DOCKED: REMARK    1  A    between atoms: C_2  and  O_3
DOCKED: REMARK    2  A    between atoms: O_3  and  C_4
DOCKED: REMARK    3  A    between atoms: C_4  and  C_5
DOCKED: REMARK    4  A    between atoms: C_10  and  C_11
DOCKED: REMARK    5  A    between atoms: C_11  and  N_12
DOCKED: REMARK    6  A    between atoms: N_12  and  C_13
DOCKED: REMARK    7  A    between atoms: N_12  and  C_15
DOCKED: REMARK    8  A    between atoms: C_13  and  C_14
DOCKED: REMARK    9  A    between atoms: C_15  and  C_16
DOCKED: REMARK   10  A    between atoms: N_21  and  C_22
DOCKED: REMARK   11  A    between atoms: C_25  and  C_26
DOCKED: REMARK                            x       y       z     vdW  Elec       q    Type
DOCKED: REMARK                         _______ _______ _______ _____ _____    ______ ____
DOCKED: USER                              x       y       z     vdW  Elec       q    Type
DOCKED: USER                           _______ _______ _______ _____ _____    ______ ____
DOCKED: ROOT
DOCKED: ATOM      1  C   UNL     1      36.299  18.663 122.292 -0.20 -0.00    +0.000 C 
DOCKED: ENDROOT
DOCKED: BRANCH   1   2
DOCKED: ATOM      2  C   UNL     1      35.494  18.478 121.038 -0.22 -0.00    +0.000 A 
DOCKED: ATOM      3  C   UNL     1      36.129  18.335 119.796 -0.13 -0.00    +0.000 A 
DOCKED: ATOM      4  C   UNL     1      35.375  18.180 118.628 -0.13 -0.00    +0.000 A 
DOCKED: ATOM      5  C   UNL     1      33.974  18.182 118.688 -0.19 -0.00    +0.000 A 
DOCKED: ATOM      6  C   UNL     1      33.209  18.038 117.520 -0.14 -0.00    +0.000 A 
DOCKED: ATOM      7  C   UNL     1      31.806  18.075 117.580 -0.18 -0.00    +0.000 A 
DOCKED: ATOM      8  C   UNL     1      31.172  18.215 118.824 -0.35 -0.00    +0.000 A 
DOCKED: ATOM      9  C   UNL     1      31.926  18.352 119.994 -0.44 -0.00    +0.000 A 
DOCKED: ATOM     10  C   UNL     1      33.327  18.342 119.936 -0.30 -0.00    +0.000 A 
DOCKED: ATOM     11  C   UNL     1      34.092  18.487 121.103 -0.20 -0.00    +0.000 A 
DOCKED: ATOM     12  CM  UNL     1      34.732  18.334 119.865 +0.00 -0.00    +0.000 AC
DOCKED: ATOM     13  CM  UNL     1      32.569  18.201 118.757 +0.00 -0.00    +0.000 AC
DOCKED: BRANCH   7  12
DOCKED: ATOM     14  C   UNL     1      30.991  17.907 116.323 -0.13 -0.00    +0.000 C 
DOCKED: BRANCH  12  13
DOCKED: ATOM     15  N   UNL     1      30.361  16.570 116.273 -0.19 -0.00    +0.000 N 
DOCKED: ATOM     16  H   UNL     1      30.302  16.397 115.269 +0.00 -0.00    +0.000 HD
DOCKED: BRANCH  13  15
DOCKED: ATOM     17  C   UNL     1      31.214  15.477 116.788 -0.24 -0.00    +0.000 C 
DOCKED: ATOM     18  C   UNL     1      30.791  14.087 116.304 -0.45 -0.00    +0.000 C 
DOCKED: ENDBRANCH  13  15
DOCKED: BRANCH  13  17
DOCKED: ATOM     19  C   UNL     1      28.929  16.488 116.659 -0.29 -0.00    +0.000 C 
DOCKED: ATOM     20  C   UNL     1      28.673  16.360 118.167 -0.42 -0.00    +0.000 C 
DOCKED: ENDBRANCH  13  17
DOCKED: ENDBRANCH  12  13
DOCKED: ENDBRANCH   7  12
DOCKED: ENDBRANCH   1   2
DOCKED: BRANCH   1  19
DOCKED: ATOM     21  O   UNL     1      36.038  17.583 123.181 -0.25 -0.00    +0.000 OA
DOCKED: BRANCH  19  21
DOCKED: ATOM     22  O   UNL     1      35.570  15.965 121.604 -0.05 -0.00    +0.000 OA
DOCKED: ATOM     23  C   UNL     1      35.990  16.251 122.760 -0.34 -0.00    +0.000 C 
DOCKED: ATOM     24  N   UNL     1      36.377  15.216 123.674 -0.43 -0.00    +0.000 N 
DOCKED: ATOM     25  H   UNL     1      36.583  15.476 124.602 -0.04 -0.00    +0.000 HD
DOCKED: BRANCH  22  24
DOCKED: ATOM     26  C   UNL     1      36.486  13.826 123.327 -0.49 -0.00    +0.000 A 
DOCKED: ATOM     27  C   UNL     1      35.960  12.857 124.195 -0.32 -0.00    +0.000 A 
DOCKED: ATOM     28  C   UNL     1      36.075  11.497 123.895 -0.55 -0.00    +0.000 A 
DOCKED: ATOM     29  C   UNL     1      36.740  11.077 122.729 -0.59 -0.00    +0.000 A 
DOCKED: ATOM     30  C   UNL     1      37.273  12.050 121.864 -0.44 -0.00    +0.000 A 
DOCKED: ATOM     31  C   UNL     1      37.156  13.410 122.165 -0.44 -0.00    +0.000 A 
DOCKED: ATOM     32  CM  UNL     1      36.615  12.453 123.029 +0.00 -0.00    +0.000 AC
DOCKED: BRANCH  27  30
DOCKED: ATOM     33  C   UNL     1      36.875   9.637 122.394 -0.65 -0.00    +0.000 C 
DOCKED: ATOM     34  N   UNL     1      37.045   8.645 123.414 -0.66 -0.00    +0.000 N 
DOCKED: ATOM     35  O   UNL     1      37.062   7.332 123.090 -2.32 -0.00    +0.000 OA
DOCKED: ATOM     36  O   UNL     1      36.854   9.275 121.186 -2.62 -0.00    +0.000 OA
DOCKED: ATOM     37  H   UNL     1      37.150   8.921 124.352 -0.55 -0.00    +0.000 HD
DOCKED: ENDBRANCH  27  30
DOCKED: ENDBRANCH  22  24
DOCKED: ENDBRANCH  19  21
DOCKED: ENDBRANCH   1  19
DOCKED: TORSDOF 9DOCKED: TER
DOCKED: ENDMDL
________________________________________________________________________________


	BEGINNING GENETIC ALGORITHM DOCKING 21 of 100
Run: 21 Seed: 604403538 1311265573 [ Run 21 of 100 GA/GALS ]
Beginning LAMARCKIAN GENETIC ALGORITHM (LGA), with a maximum of 2500000 energy evaluations.

Final-Value: -16.174


	FINAL GENETIC ALGORITHM DOCKED STATE
	_______________________________________________


Detailed state:  trans 37.774 16.125 123.367 quatxyzw 0.103884 -0.565608 0.778560 -0.251277 center 1.619 0.086 0.013 ntor 9 175.0357 -3.2064 165.0567 -61.6694 -177.8722 64.5897 42.1034 179.6562 -31.3816
State:	 37.774  16.125 123.367   0.107 -0.584  0.804 -150.894    175.04   -3.21  165.06  -61.67 -177.87   64.59   42.10  179.66  -31.38

DOCKED: MODEL       21
DOCKED: USER    Run = 21
DOCKED: USER    DPF = ligand_dock.biased.dpf
DOCKED: USER  
DOCKED: USER    Estimated Free Energy of Binding    =  -12.14 kcal/mol  [=(1)+(2)+(3)-(4)]
DOCKED: USER    Estimated Inhibition Constant, Ki   =    1.27 nM (nanomolar)  [Temperature = 298.15 K]
DOCKED: USER    
DOCKED: USER    (1) Final Intermolecular Energy     =  -14.82 kcal/mol
DOCKED: USER        vdW + Hbond + desolv Energy     =  -14.82 kcal/mol
DOCKED: USER        Electrostatic Energy            =   +0.00 kcal/mol
DOCKED: USER    (2) Final Total Internal Energy     =   -1.35 kcal/mol
DOCKED: USER    (3) Torsional Free Energy           =   +2.68 kcal/mol
DOCKED: USER    (4) Unbound System's Energy  [=(2)] =   -1.35 kcal/mol
DOCKED: USER    
DOCKED: USER    
DOCKED: USER    NEWDPF move ligand.dum.pdbqt
DOCKED: USER    NEWDPF about 1.619000 0.086000 0.013000
DOCKED: USER    NEWDPF tran0 37.774092 16.125495 123.366826
DOCKED: USER    NEWDPF quaternion0 0.103884 -0.565608 0.778560 -0.251277
DOCKED: USER    NEWDPF axisangle0 0.107328 -0.584357 0.804368 -150.893849
DOCKED: USER    NEWDPF quat0 0.107328 -0.584357 0.804368 -150.893849
DOCKED: USER    NEWDPF dihe0 175.04 -3.21 165.06 -61.67 -177.87 64.59 42.10 179.66 -31.38 
DOCKED: USER  keepresnum = 1 
DOCKED: USER  
DOCKED: REMARK  Name = 
DOCKED: REMARK  11 active torsions:
DOCKED: REMARK  status: ('A' for Active; 'I' for Inactive)
DOCKED: REMARK    1  A    between atoms: C_2  and  O_3
DOCKED: REMARK    2  A    between atoms: O_3  and  C_4
DOCKED: REMARK    3  A    between atoms: C_4  and  C_5
DOCKED: REMARK    4  A    between atoms: C_10  and  C_11
DOCKED: REMARK    5  A    between atoms: C_11  and  N_12
DOCKED: REMARK    6  A    between atoms: N_12  and  C_13
DOCKED: REMARK    7  A    between atoms: N_12  and  C_15
DOCKED: REMARK    8  A    between atoms: C_13  and  C_14
DOCKED: REMARK    9  A    between atoms: C_15  and  C_16
DOCKED: REMARK   10  A    between atoms: N_21  and  C_22
DOCKED: REMARK   11  A    between atoms: C_25  and  C_26
DOCKED: REMARK                            x       y       z     vdW  Elec       q    Type
DOCKED: REMARK                         _______ _______ _______ _____ _____    ______ ____
DOCKED: USER                              x       y       z     vdW  Elec       q    Type
DOCKED: USER                           _______ _______ _______ _____ _____    ______ ____
DOCKED: ROOT
DOCKED: ATOM      1  C   UNL     1      37.922  18.488 123.002 -0.13 -0.00    +0.000 C 
DOCKED: ENDROOT
DOCKED: BRANCH   1   2
DOCKED: ATOM      2  C   UNL     1      39.124  17.889 122.331 -0.11 -0.00    +0.000 A 
DOCKED: ATOM      3  C   UNL     1      39.021  17.326 121.050 -0.08 -0.00    +0.000 A 
DOCKED: ATOM      4  C   UNL     1      40.139  16.753 120.436 -0.12 -0.00    +0.000 A 
DOCKED: ATOM      5  C   UNL     1      41.372  16.722 121.103 -0.17 -0.00    +0.000 A 
DOCKED: ATOM      6  C   UNL     1      42.497  16.140 120.498 -0.19 -0.00    +0.000 A 
DOCKED: ATOM      7  C   UNL     1      43.722  16.081 121.183 -0.25 -0.00    +0.000 A 
DOCKED: ATOM      8  C   UNL     1      43.824  16.647 122.463 -0.30 -0.00    +0.000 A 
DOCKED: ATOM      9  C   UNL     1      42.711  17.236 123.070 -0.33 -0.00    +0.000 A 
DOCKED: ATOM     10  C   UNL     1      41.479  17.275 122.401 -0.22 -0.00    +0.000 A 
DOCKED: ATOM     11  C   UNL     1      40.355  17.856 123.006 -0.18 -0.00    +0.000 A 
DOCKED: ATOM     12  CM  UNL     1      40.248  17.303 121.721 +0.00 -0.00    +0.000 AC
DOCKED: ATOM     13  CM  UNL     1      42.601  16.683 121.787 +0.00 -0.00    +0.000 AC
DOCKED: BRANCH   7  12
DOCKED: ATOM     14  C   UNL     1      44.929  15.464 120.522 -0.24 +0.00    +0.000 C 
DOCKED: BRANCH  12  13
DOCKED: ATOM     15  N   UNL     1      46.109  16.347 120.645 -0.23 +0.00    +0.000 N 
DOCKED: ATOM     16  H   UNL     1      45.683  17.240 120.897 +0.00 +0.00    +0.000 HD
DOCKED: BRANCH  13  15
DOCKED: ATOM     17  C   UNL     1      46.996  16.024 121.783 -0.27 +0.00    +0.000 C 
DOCKED: ATOM     18  C   UNL     1      47.016  17.099 122.872 -0.39 +0.00    +0.000 C 
DOCKED: ENDBRANCH  13  15
DOCKED: BRANCH  13  17
DOCKED: ATOM     19  C   UNL     1      46.807  16.713 119.385 -0.15 +0.00    +0.000 C 
DOCKED: ATOM     20  C   UNL     1      47.039  15.547 118.414 -0.29 +0.00    +0.000 C 
DOCKED: ENDBRANCH  13  17
DOCKED: ENDBRANCH  12  13
DOCKED: ENDBRANCH   7  12
DOCKED: ENDBRANCH   1   2
DOCKED: BRANCH   1  19
DOCKED: ATOM     21  O   UNL     1      37.090  17.444 123.494 -0.23 -0.00    +0.000 OA
DOCKED: BRANCH  19  21
DOCKED: ATOM     22  O   UNL     1      38.557  15.665 123.448 -0.34 -0.00    +0.000 OA
DOCKED: ATOM     23  C   UNL     1      37.378  16.090 123.299 -0.32 -0.00    +0.000 C 
DOCKED: ATOM     24  N   UNL     1      36.328  15.207 122.884 -0.37 -0.00    +0.000 N 
DOCKED: ATOM     25  H   UNL     1      35.453  15.604 122.666 -0.02 -0.00    +0.000 HD
DOCKED: BRANCH  22  24
DOCKED: ATOM     26  C   UNL     1      36.466  13.781 122.767 -0.42 -0.00    +0.000 A 
DOCKED: ATOM     27  C   UNL     1      37.070  13.240 121.623 -0.41 -0.00    +0.000 A 
DOCKED: ATOM     28  C   UNL     1      37.194  11.857 121.470 -0.46 -0.00    +0.000 A 
DOCKED: ATOM     29  C   UNL     1      36.693  10.983 122.452 -0.58 -0.00    +0.000 A 
DOCKED: ATOM     30  C   UNL     1      36.081  11.528 123.596 -0.61 -0.00    +0.000 A 
DOCKED: ATOM     31  C   UNL     1      35.959  12.912 123.747 -0.54 -0.00    +0.000 A 
DOCKED: ATOM     32  CM  UNL     1      36.577  12.383 122.609 +0.00 -0.00    +0.000 AC
DOCKED: BRANCH  27  30
DOCKED: ATOM     33  C   UNL     1      36.812   9.510 122.307 -0.68 -0.00    +0.000 C 
DOCKED: ATOM     34  N   UNL     1      37.072   8.667 123.435 -0.65 -0.00    +0.000 N 
DOCKED: ATOM     35  O   UNL     1      37.074   7.322 123.293 -2.35 -0.00    +0.000 OA
DOCKED: ATOM     36  O   UNL     1      36.696   8.987 121.165 -2.62 -0.00    +0.000 OA
DOCKED: ATOM     37  H   UNL     1      37.251   9.068 124.316 -0.58 -0.00    +0.000 HD
DOCKED: ENDBRANCH  27  30
DOCKED: ENDBRANCH  22  24
DOCKED: ENDBRANCH  19  21
DOCKED: ENDBRANCH   1  19
DOCKED: TORSDOF 9DOCKED: TER
DOCKED: ENDMDL
________________________________________________________________________________


	BEGINNING GENETIC ALGORITHM DOCKING 22 of 100
Run: 22 Seed: 694710869 561665631 [ Run 22 of 100 GA/GALS ]
Beginning LAMARCKIAN GENETIC ALGORITHM (LGA), with a maximum of 2500000 energy evaluations.

Final-Value: -17.672


	FINAL GENETIC ALGORITHM DOCKED STATE
	_______________________________________________


Detailed state:  trans 35.674 16.171 124.264 quatxyzw 0.066780 -0.375101 0.914464 -0.136362 center 1.619 0.086 0.013 ntor 9 6.7116 103.2346 8.4707 -54.6703 135.7213 64.7286 -126.8205 136.7176 -13.3266
State:	 35.674  16.171 124.264   0.067 -0.379  0.923 -164.325      6.71  103.23    8.47  -54.67  135.72   64.73 -126.82  136.72  -13.33

DOCKED: MODEL       22
DOCKED: USER    Run = 22
DOCKED: USER    DPF = ligand_dock.biased.dpf
DOCKED: USER  
DOCKED: USER    Estimated Free Energy of Binding    =  -13.07 kcal/mol  [=(1)+(2)+(3)-(4)]
DOCKED: USER    Estimated Inhibition Constant, Ki   =  264.55 pM (picomolar)  [Temperature = 298.15 K]
DOCKED: USER    
DOCKED: USER    (1) Final Intermolecular Energy     =  -15.75 kcal/mol
DOCKED: USER        vdW + Hbond + desolv Energy     =  -15.75 kcal/mol
DOCKED: USER        Electrostatic Energy            =   +0.00 kcal/mol
DOCKED: USER    (2) Final Total Internal Energy     =   -1.92 kcal/mol
DOCKED: USER    (3) Torsional Free Energy           =   +2.68 kcal/mol
DOCKED: USER    (4) Unbound System's Energy  [=(2)] =   -1.92 kcal/mol
DOCKED: USER    
DOCKED: USER    
DOCKED: USER    NEWDPF move ligand.dum.pdbqt
DOCKED: USER    NEWDPF about 1.619000 0.086000 0.013000
DOCKED: USER    NEWDPF tran0 35.673590 16.171108 124.264456
DOCKED: USER    NEWDPF quaternion0 0.066780 -0.375101 0.914464 -0.136362
DOCKED: USER    NEWDPF axisangle0 0.067410 -0.378638 0.923087 -164.325206
DOCKED: USER    NEWDPF quat0 0.067410 -0.378638 0.923087 -164.325206
DOCKED: USER    NEWDPF dihe0 6.71 103.23 8.47 -54.67 135.72 64.73 -126.82 136.72 -13.33 
DOCKED: USER  keepresnum = 1 
DOCKED: USER  
DOCKED: REMARK  Name = 
DOCKED: REMARK  11 active torsions:
DOCKED: REMARK  status: ('A' for Active; 'I' for Inactive)
DOCKED: REMARK    1  A    between atoms: C_2  and  O_3
DOCKED: REMARK    2  A    between atoms: O_3  and  C_4
DOCKED: REMARK    3  A    between atoms: C_4  and  C_5
DOCKED: REMARK    4  A    between atoms: C_10  and  C_11
DOCKED: REMARK    5  A    between atoms: C_11  and  N_12
DOCKED: REMARK    6  A    between atoms: N_12  and  C_13
DOCKED: REMARK    7  A    between atoms: N_12  and  C_15
DOCKED: REMARK    8  A    between atoms: C_13  and  C_14
DOCKED: REMARK    9  A    between atoms: C_15  and  C_16
DOCKED: REMARK   10  A    between atoms: N_21  and  C_22
DOCKED: REMARK   11  A    between atoms: C_25  and  C_26
DOCKED: REMARK                            x       y       z     vdW  Elec       q    Type
DOCKED: REMARK                         _______ _______ _______ _____ _____    ______ ____
DOCKED: USER                              x       y       z     vdW  Elec       q    Type
DOCKED: USER                           _______ _______ _______ _____ _____    ______ ____
DOCKED: ROOT
DOCKED: ATOM      1  C   UNL     1      35.383  18.117 122.898 -0.30 -0.00    +0.000 C 
DOCKED: ENDROOT
DOCKED: BRANCH   1   2
DOCKED: ATOM      2  C   UNL     1      36.781  17.632 122.638 -0.17 -0.00    +0.000 A 
DOCKED: ATOM      3  C   UNL     1      37.072  16.871 121.497 -0.15 -0.00    +0.000 A 
DOCKED: ATOM      4  C   UNL     1      38.372  16.406 121.268 -0.15 -0.00    +0.000 A 
DOCKED: ATOM      5  C   UNL     1      39.393  16.686 122.188 -0.18 -0.00    +0.000 A 
DOCKED: ATOM      6  C   UNL     1      40.697  16.216 121.972 -0.26 -0.00    +0.000 A 
DOCKED: ATOM      7  C   UNL     1      41.710  16.469 122.912 -0.37 -0.00    +0.000 A 
DOCKED: ATOM      8  C   UNL     1      41.417  17.234 124.052 -0.23 -0.00    +0.000 A 
DOCKED: ATOM      9  C   UNL     1      40.121  17.713 124.271 -0.23 -0.00    +0.000 A 
DOCKED: ATOM     10  C   UNL     1      39.102  17.441 123.348 -0.20 -0.00    +0.000 A 
DOCKED: ATOM     11  C   UNL     1      37.798  17.910 123.565 -0.17 -0.00    +0.000 A 
DOCKED: ATOM     12  CM  UNL     1      38.086  17.158 122.417 +0.00 -0.00    +0.000 AC
DOCKED: ATOM     13  CM  UNL     1      40.407  16.960 123.124 +0.00 -0.00    +0.000 AC
DOCKED: BRANCH   7  12
DOCKED: ATOM     14  C   UNL     1      43.111  15.970 122.667 -0.34 -0.00    +0.000 C 
DOCKED: BRANCH  12  13
DOCKED: ATOM     15  N   UNL     1      43.872  16.920 121.826 -0.27 -0.00    +0.000 N 
DOCKED: ATOM     16  H   UNL     1      43.145  17.569 121.524 +0.00 -0.00    +0.000 HD
DOCKED: BRANCH  13  15
DOCKED: ATOM     17  C   UNL     1      44.834  17.759 122.572 -0.29 -0.00    +0.000 C 
DOCKED: ATOM     18  C   UNL     1      46.137  17.038 122.923 -0.37 +0.00    +0.000 C 
DOCKED: ENDBRANCH  13  15
DOCKED: BRANCH  13  17
DOCKED: ATOM     19  C   UNL     1      44.360  16.414 120.516 -0.24 -0.00    +0.000 C 
DOCKED: ATOM     20  C   UNL     1      43.257  15.972 119.545 -0.23 -0.00    +0.000 C 
DOCKED: ENDBRANCH  13  17
DOCKED: ENDBRANCH  12  13
DOCKED: ENDBRANCH   7  12
DOCKED: ENDBRANCH   1   2
DOCKED: BRANCH   1  19
DOCKED: ATOM     21  O   UNL     1      34.717  17.192 123.750 -0.41 -0.00    +0.000 OA
DOCKED: BRANCH  19  21
DOCKED: ATOM     22  O   UNL     1      33.706  15.138 123.467 -0.62 -0.00    +0.000 OA
DOCKED: ATOM     23  C   UNL     1      34.771  15.809 123.557 -0.51 -0.00    +0.000 C 
DOCKED: ATOM     24  N   UNL     1      36.050  15.162 123.510 -0.45 -0.00    +0.000 N 
DOCKED: ATOM     25  H   UNL     1      36.848  15.706 123.703 -0.02 -0.00    +0.000 HD
DOCKED: BRANCH  22  24
DOCKED: ATOM     26  C   UNL     1      36.245  13.773 123.198 -0.47 -0.00    +0.000 A 
DOCKED: ATOM     27  C   UNL     1      36.040  12.808 124.195 -0.32 -0.00    +0.000 A 
DOCKED: ATOM     28  C   UNL     1      36.247  11.453 123.927 -0.54 -0.00    +0.000 A 
DOCKED: ATOM     29  C   UNL     1      36.688  11.035 122.658 -0.59 -0.00    +0.000 A 
DOCKED: ATOM     30  C   UNL     1      36.900  12.005 121.661 -0.50 -0.00    +0.000 A 
DOCKED: ATOM     31  C   UNL     1      36.691  13.361 121.931 -0.35 -0.00    +0.000 A 
DOCKED: ATOM     32  CM  UNL     1      36.469  12.406 122.928 +0.00 -0.00    +0.000 AC
DOCKED: BRANCH  27  30
DOCKED: ATOM     33  C   UNL     1      36.917   9.600 122.354 -0.64 -0.00    +0.000 C 
DOCKED: ATOM     34  N   UNL     1      36.986   8.619 123.394 -0.66 -0.00    +0.000 N 
DOCKED: ATOM     35  O   UNL     1      37.092   7.306 123.085 -2.27 -0.00    +0.000 OA
DOCKED: ATOM     36  O   UNL     1      37.067   9.235 121.156 -2.72 -0.00    +0.000 OA
DOCKED: ATOM     37  H   UNL     1      36.958   8.900 124.337 -0.50 -0.00    +0.000 HD
DOCKED: ENDBRANCH  27  30
DOCKED: ENDBRANCH  22  24
DOCKED: ENDBRANCH  19  21
DOCKED: ENDBRANCH   1  19
DOCKED: TORSDOF 9DOCKED: TER
DOCKED: ENDMDL
________________________________________________________________________________


	BEGINNING GENETIC ALGORITHM DOCKING 23 of 100
Run: 23 Seed: 1139516530 1864954950 [ Run 23 of 100 GA/GALS ]
Beginning LAMARCKIAN GENETIC ALGORITHM (LGA), with a maximum of 2500000 energy evaluations.

Final-Value: -17.638


	FINAL GENETIC ALGORITHM DOCKED STATE
	_______________________________________________


Detailed state:  trans 33.814 17.181 123.793 quatxyzw -0.894230 0.124509 0.356534 0.240279 center 1.619 0.086 0.013 ntor 9 156.1352 179.9367 167.8350 -31.1158 63.8048 -22.7346 46.4349 73.4272 135.3676
State:	 33.814  17.181 123.793  -0.921  0.128  0.367 152.194    156.14  179.94  167.83  -31.12   63.80  -22.73   46.43   73.43  135.37

DOCKED: MODEL       23
DOCKED: USER    Run = 23
DOCKED: USER    DPF = ligand_dock.biased.dpf
DOCKED: USER  
DOCKED: USER    Estimated Free Energy of Binding    =  -13.61 kcal/mol  [=(1)+(2)+(3)-(4)]
DOCKED: USER    Estimated Inhibition Constant, Ki   =  105.83 pM (picomolar)  [Temperature = 298.15 K]
DOCKED: USER    
DOCKED: USER    (1) Final Intermolecular Energy     =  -16.29 kcal/mol
DOCKED: USER        vdW + Hbond + desolv Energy     =  -16.29 kcal/mol
DOCKED: USER        Electrostatic Energy            =   +0.00 kcal/mol
DOCKED: USER    (2) Final Total Internal Energy     =   -1.34 kcal/mol
DOCKED: USER    (3) Torsional Free Energy           =   +2.68 kcal/mol
DOCKED: USER    (4) Unbound System's Energy  [=(2)] =   -1.34 kcal/mol
DOCKED: USER    
DOCKED: USER    
DOCKED: USER    NEWDPF move ligand.dum.pdbqt
DOCKED: USER    NEWDPF about 1.619000 0.086000 0.013000
DOCKED: USER    NEWDPF tran0 33.813637 17.181112 123.793276
DOCKED: USER    NEWDPF quaternion0 -0.894230 0.124509 0.356534 0.240279
DOCKED: USER    NEWDPF axisangle0 -0.921218 0.128266 0.367294 152.193935
DOCKED: USER    NEWDPF quat0 -0.921218 0.128266 0.367294 152.193935
DOCKED: USER    NEWDPF dihe0 156.14 179.94 167.83 -31.12 63.80 -22.73 46.43 73.43 135.37 
DOCKED: USER  keepresnum = 1 
DOCKED: USER  
DOCKED: REMARK  Name = 
DOCKED: REMARK  11 active torsions:
DOCKED: REMARK  status: ('A' for Active; 'I' for Inactive)
DOCKED: REMARK    1  A    between atoms: C_2  and  O_3
DOCKED: REMARK    2  A    between atoms: O_3  and  C_4
DOCKED: REMARK    3  A    between atoms: C_4  and  C_5
DOCKED: REMARK    4  A    between atoms: C_10  and  C_11
DOCKED: REMARK    5  A    between atoms: C_11  and  N_12
DOCKED: REMARK    6  A    between atoms: N_12  and  C_13
DOCKED: REMARK    7  A    between atoms: N_12  and  C_15
DOCKED: REMARK    8  A    between atoms: C_13  and  C_14
DOCKED: REMARK    9  A    between atoms: C_15  and  C_16
DOCKED: REMARK   10  A    between atoms: N_21  and  C_22
DOCKED: REMARK   11  A    between atoms: C_25  and  C_26
DOCKED: REMARK                            x       y       z     vdW  Elec       q    Type
DOCKED: REMARK                         _______ _______ _______ _____ _____    ______ ____
DOCKED: USER                              x       y       z     vdW  Elec       q    Type
DOCKED: USER                           _______ _______ _______ _____ _____    ______ ____
DOCKED: ROOT
DOCKED: ATOM      1  C   UNL     1      35.723  18.118 124.896 -0.27 -0.00    +0.000 C 
DOCKED: ENDROOT
DOCKED: BRANCH   1   2
DOCKED: ATOM      2  C   UNL     1      34.526  18.569 125.683 -0.27 -0.00    +0.000 A 
DOCKED: ATOM      3  C   UNL     1      34.145  19.919 125.695 -0.17 -0.00    +0.000 A 
DOCKED: ATOM      4  C   UNL     1      33.040  20.337 126.444 -0.17 -0.00    +0.000 A 
DOCKED: ATOM      5  C   UNL     1      32.311  19.410 127.202 -0.22 -0.00    +0.000 A 
DOCKED: ATOM      6  C   UNL     1      31.207  19.822 127.964 -0.21 -0.00    +0.000 A 
DOCKED: ATOM      7  C   UNL     1      30.500  18.898 128.750 -0.27 -0.00    +0.000 A 
DOCKED: ATOM      8  C   UNL     1      30.880  17.546 128.735 -0.39 -0.00    +0.000 A 
DOCKED: ATOM      9  C   UNL     1      31.974  17.126 127.973 -0.34 -0.00    +0.000 A 
DOCKED: ATOM     10  C   UNL     1      32.699  18.050 127.207 -0.23 -0.00    +0.000 A 
DOCKED: ATOM     11  C   UNL     1      33.803  17.638 126.446 -0.33 -0.00    +0.000 A 
DOCKED: ATOM     12  CM  UNL     1      33.421  18.988 126.446 -0.00 -0.00    +0.000 AC
DOCKED: ATOM     13  CM  UNL     1      31.595  18.475 127.972 +0.00 -0.00    +0.000 AC
DOCKED: BRANCH   7  12
DOCKED: ATOM     14  C   UNL     1      29.308  19.346 129.557 -0.23 -0.00    +0.000 C 
DOCKED: BRANCH  12  13
DOCKED: ATOM     15  N   UNL     1      28.871  20.700 129.151 -0.33 -0.00    +0.000 N 
DOCKED: ATOM     16  H   UNL     1      29.370  20.830 128.270 +0.00 -0.00    +0.000 HD
DOCKED: BRANCH  13  15
DOCKED: ATOM     17  C   UNL     1      27.442  20.794 128.785 -0.60 -0.00    +0.000 C 
DOCKED: ATOM     18  C   UNL     1      27.192  21.521 127.461 -0.52 -0.00    +0.000 C 
DOCKED: ENDBRANCH  13  15
DOCKED: BRANCH  13  17
DOCKED: ATOM     19  C   UNL     1      29.396  21.840 129.945 -0.24 -0.00    +0.000 C 
DOCKED: ATOM     20  C   UNL     1      29.819  23.062 129.118 -0.15 -0.00    +0.000 C 
DOCKED: ENDBRANCH  13  17
DOCKED: ENDBRANCH  12  13
DOCKED: ENDBRANCH   7  12
DOCKED: ENDBRANCH   1   2
DOCKED: BRANCH   1  19
DOCKED: ATOM     21  O   UNL     1      35.302  17.219 123.876 -0.35 -0.00    +0.000 OA
DOCKED: BRANCH  19  21
DOCKED: ATOM     22  O   UNL     1      35.354  15.190 124.972 -0.44 -0.00    +0.000 OA
DOCKED: ATOM     23  C   UNL     1      35.570  15.848 123.917 -0.47 -0.00    +0.000 C 
DOCKED: ATOM     24  N   UNL     1      36.137  15.214 122.762 -0.35 -0.00    +0.000 N 
DOCKED: ATOM     25  H   UNL     1      36.399  15.787 122.005 -0.01 -0.00    +0.000 HD
DOCKED: BRANCH  22  24
DOCKED: ATOM     26  C   UNL     1      36.347  13.798 122.635 -0.34 -0.00    +0.000 A 
DOCKED: ATOM     27  C   UNL     1      37.136  13.311 121.583 -0.41 -0.00    +0.000 A 
DOCKED: ATOM     28  C   UNL     1      37.335  11.938 121.420 -0.43 -0.00    +0.000 A 
DOCKED: ATOM     29  C   UNL     1      36.728  11.019 122.297 -0.56 -0.00    +0.000 A 
DOCKED: ATOM     30  C   UNL     1      35.931  11.510 123.347 -0.61 -0.00    +0.000 A 
DOCKED: ATOM     31  C   UNL     1      35.734  12.884 123.509 -0.46 -0.00    +0.000 A 
DOCKED: ATOM     32  CM  UNL     1      36.535  12.410 122.466 +0.00 -0.00    +0.000 AC
DOCKED: BRANCH  27  30
DOCKED: ATOM     33  C   UNL     1      36.925   9.556 122.139 -0.64 -0.00    +0.000 C 
DOCKED: ATOM     34  N   UNL     1      36.988   8.684 123.273 -0.67 -0.00    +0.000 N 
DOCKED: ATOM     35  O   UNL     1      37.065   7.345 123.098 -2.33 -0.00    +0.000 OA
DOCKED: ATOM     36  O   UNL     1      37.054   9.068 120.983 -2.72 -0.00    +0.000 OA
DOCKED: ATOM     37  H   UNL     1      36.976   9.061 124.182 -0.54 -0.00    +0.000 HD
DOCKED: ENDBRANCH  27  30
DOCKED: ENDBRANCH  22  24
DOCKED: ENDBRANCH  19  21
DOCKED: ENDBRANCH   1  19
DOCKED: TORSDOF 9DOCKED: TER
DOCKED: ENDMDL
________________________________________________________________________________


	BEGINNING GENETIC ALGORITHM DOCKING 24 of 100
Run: 24 Seed: 284849970 1541761931 [ Run 24 of 100 GA/GALS ]
Beginning LAMARCKIAN GENETIC ALGORITHM (LGA), with a maximum of 2500000 energy evaluations.

Final-Value: -17.156


	FINAL GENETIC ALGORITHM DOCKED STATE
	_______________________________________________


Detailed state:  trans 35.718 16.037 123.090 quatxyzw -0.267901 0.417205 -0.735118 0.462354 center 1.619 0.086 0.013 ntor 9 -30.9054 163.0935 167.8205 -82.7979 -100.5241 -112.2378 -109.6195 176.4881 169.0385
State:	 35.718  16.037 123.090  -0.302  0.471 -0.829 124.922    -30.91  163.09  167.82  -82.80 -100.52 -112.24 -109.62  176.49  169.04

DOCKED: MODEL       24
DOCKED: USER    Run = 24
DOCKED: USER    DPF = ligand_dock.biased.dpf
DOCKED: USER  
DOCKED: USER    Estimated Free Energy of Binding    =  -12.23 kcal/mol  [=(1)+(2)+(3)-(4)]
DOCKED: USER    Estimated Inhibition Constant, Ki   =    1.09 nM (nanomolar)  [Temperature = 298.15 K]
DOCKED: USER    
DOCKED: USER    (1) Final Intermolecular Energy     =  -14.91 kcal/mol
DOCKED: USER        vdW + Hbond + desolv Energy     =  -14.91 kcal/mol
DOCKED: USER        Electrostatic Energy            =   +0.00 kcal/mol
DOCKED: USER    (2) Final Total Internal Energy     =   -2.24 kcal/mol
DOCKED: USER    (3) Torsional Free Energy           =   +2.68 kcal/mol
DOCKED: USER    (4) Unbound System's Energy  [=(2)] =   -2.24 kcal/mol
DOCKED: USER    
DOCKED: USER    
DOCKED: USER    NEWDPF move ligand.dum.pdbqt
DOCKED: USER    NEWDPF about 1.619000 0.086000 0.013000
DOCKED: USER    NEWDPF tran0 35.718188 16.037071 123.090380
DOCKED: USER    NEWDPF quaternion0 -0.267901 0.417205 -0.735118 0.462354
DOCKED: USER    NEWDPF axisangle0 -0.302134 0.470517 -0.829053 124.921819
DOCKED: USER    NEWDPF quat0 -0.302134 0.470517 -0.829053 124.921819
DOCKED: USER    NEWDPF dihe0 -30.91 163.09 167.82 -82.80 -100.52 -112.24 -109.62 176.49 169.04 
DOCKED: USER  keepresnum = 1 
DOCKED: USER  
DOCKED: REMARK  Name = 
DOCKED: REMARK  11 active torsions:
DOCKED: REMARK  status: ('A' for Active; 'I' for Inactive)
DOCKED: REMARK    1  A    between atoms: C_2  and  O_3
DOCKED: REMARK    2  A    between atoms: O_3  and  C_4
DOCKED: REMARK    3  A    between atoms: C_4  and  C_5
DOCKED: REMARK    4  A    between atoms: C_10  and  C_11
DOCKED: REMARK    5  A    between atoms: C_11  and  N_12
DOCKED: REMARK    6  A    between atoms: N_12  and  C_13
DOCKED: REMARK    7  A    between atoms: N_12  and  C_15
DOCKED: REMARK    8  A    between atoms: C_13  and  C_14
DOCKED: REMARK    9  A    between atoms: C_15  and  C_16
DOCKED: REMARK   10  A    between atoms: N_21  and  C_22
DOCKED: REMARK   11  A    between atoms: C_25  and  C_26
DOCKED: REMARK                            x       y       z     vdW  Elec       q    Type
DOCKED: REMARK                         _______ _______ _______ _____ _____    ______ ____
DOCKED: USER                              x       y       z     vdW  Elec       q    Type
DOCKED: USER                           _______ _______ _______ _____ _____    ______ ____
DOCKED: ROOT
DOCKED: ATOM      1  C   UNL     1      35.840  18.294 122.296 -0.25 -0.00    +0.000 C 
DOCKED: ENDROOT
DOCKED: BRANCH   1   2
DOCKED: ATOM      2  C   UNL     1      36.403  17.436 121.199 -0.16 -0.00    +0.000 A 
DOCKED: ATOM      3  C   UNL     1      37.708  16.930 121.286 -0.12 -0.00    +0.000 A 
DOCKED: ATOM      4  C   UNL     1      38.235  16.147 120.254 -0.14 -0.00    +0.000 A 
DOCKED: ATOM      5  C   UNL     1      37.466  15.873 119.114 -0.16 -0.00    +0.000 A 
DOCKED: ATOM      6  C   UNL     1      37.989  15.096 118.069 -0.19 -0.00    +0.000 A 
DOCKED: ATOM      7  C   UNL     1      37.229  14.853 116.914 -0.22 -0.00    +0.000 A 
DOCKED: ATOM      8  C   UNL     1      35.921  15.357 116.829 -0.20 -0.00    +0.000 A 
DOCKED: ATOM      9  C   UNL     1      35.389  16.126 117.869 -0.12 -0.00    +0.000 A 
DOCKED: ATOM     10  C   UNL     1      36.154  16.393 119.013 -0.13 -0.00    +0.000 A 
DOCKED: ATOM     11  C   UNL     1      35.631  17.171 120.057 -0.14 -0.00    +0.000 A 
DOCKED: ATOM     12  CM  UNL     1      36.933  16.658 120.154 +0.00 -0.00    +0.000 AC
DOCKED: ATOM     13  CM  UNL     1      36.691  15.616 117.968 +0.00 -0.00    +0.000 AC
DOCKED: BRANCH   7  12
DOCKED: ATOM     14  C   UNL     1      37.794  14.008 115.800 -0.38 -0.00    +0.000 C 
DOCKED: BRANCH  12  13
DOCKED: ATOM     15  N   UNL     1      37.222  14.401 114.494 -0.25 -0.00    +0.000 N 
DOCKED: ATOM     16  H   UNL     1      36.253  14.610 114.738 +0.00 -0.00    +0.000 HD
DOCKED: BRANCH  13  15
DOCKED: ATOM     17  C   UNL     1      37.751  15.672 113.955 -0.16 -0.00    +0.000 C 
DOCKED: ATOM     18  C   UNL     1      39.261  15.839 114.144 -0.21 -0.00    +0.000 C 
DOCKED: ENDBRANCH  13  15
DOCKED: BRANCH  13  17
DOCKED: ATOM     19  C   UNL     1      37.033  13.321 113.491 -0.34 -0.00    +0.000 C 
DOCKED: ATOM     20  C   UNL     1      35.590  13.139 113.002 -0.31 -0.00    +0.000 C 
DOCKED: ENDBRANCH  13  17
DOCKED: ENDBRANCH  12  13
DOCKED: ENDBRANCH   7  12
DOCKED: ENDBRANCH   1   2
DOCKED: BRANCH   1  19
DOCKED: ATOM     21  O   UNL     1      35.340  17.458 123.334 -0.32 -0.00    +0.000 OA
DOCKED: BRANCH  19  21
DOCKED: ATOM     22  O   UNL     1      34.184  15.476 123.094 -0.44 -0.00    +0.000 OA
DOCKED: ATOM     23  C   UNL     1      35.292  16.065 123.228 -0.43 -0.00    +0.000 C 
DOCKED: ATOM     24  N   UNL     1      36.512  15.318 123.323 -0.39 -0.00    +0.000 N 
DOCKED: ATOM     25  H   UNL     1      37.336  15.809 123.547 -0.02 -0.00    +0.000 HD
DOCKED: BRANCH  22  24
DOCKED: ATOM     26  C   UNL     1      36.613  13.900 123.111 -0.48 -0.00    +0.000 A 
DOCKED: ATOM     27  C   UNL     1      37.130  13.420 121.899 -0.42 -0.00    +0.000 A 
DOCKED: ATOM     28  C   UNL     1      37.215  12.047 121.656 -0.46 -0.00    +0.000 A 
DOCKED: ATOM     29  C   UNL     1      36.762  11.123 122.616 -0.58 -0.00    +0.000 A 
DOCKED: ATOM     30  C   UNL     1      36.238  11.606 123.828 -0.61 -0.00    +0.000 A 
DOCKED: ATOM     31  C   UNL     1      36.154  12.981 124.069 -0.38 -0.00    +0.000 A 
DOCKED: ATOM     32  CM  UNL     1      36.685  12.512 122.863 +0.00 -0.00    +0.000 AC
DOCKED: BRANCH  27  30
DOCKED: ATOM     33  C   UNL     1      36.842   9.660 122.375 -0.66 -0.00    +0.000 C 
DOCKED: ATOM     34  N   UNL     1      37.100   8.740 123.442 -0.63 -0.00    +0.000 N 
DOCKED: ATOM     35  O   UNL     1      37.065   7.407 123.215 -2.40 -0.00    +0.000 OA
DOCKED: ATOM     36  O   UNL     1      36.692   9.213 121.205 -2.63 -0.00    +0.000 OA
DOCKED: ATOM     37  H   UNL     1      37.305   9.080 124.343 -0.59 -0.00    +0.000 HD
DOCKED: ENDBRANCH  27  30
DOCKED: ENDBRANCH  22  24
DOCKED: ENDBRANCH  19  21
DOCKED: ENDBRANCH   1  19
DOCKED: TORSDOF 9DOCKED: TER
DOCKED: ENDMDL
________________________________________________________________________________


	BEGINNING GENETIC ALGORITHM DOCKING 25 of 100
Run: 25 Seed: 978810679 1691433634 [ Run 25 of 100 GA/GALS ]
Beginning LAMARCKIAN GENETIC ALGORITHM (LGA), with a maximum of 2500000 energy evaluations.

Final-Value: -16.471


	FINAL GENETIC ALGORITHM DOCKED STATE
	_______________________________________________


Detailed state:  trans 38.111 16.059 122.215 quatxyzw -0.519796 0.208669 -0.642970 0.522359 center 1.619 0.086 0.013 ntor 9 -170.8002 137.9696 -20.2656 -86.5345 112.1427 -114.6650 114.9133 179.5393 -4.8421
State:	 38.111  16.059 122.215  -0.610  0.245 -0.754 117.019   -170.80  137.97  -20.27  -86.53  112.14 -114.67  114.91  179.54   -4.84

DOCKED: MODEL       25
DOCKED: USER    Run = 25
DOCKED: USER    DPF = ligand_dock.biased.dpf
DOCKED: USER  
DOCKED: USER    Estimated Free Energy of Binding    =  -11.41 kcal/mol  [=(1)+(2)+(3)-(4)]
DOCKED: USER    Estimated Inhibition Constant, Ki   =    4.30 nM (nanomolar)  [Temperature = 298.15 K]
DOCKED: USER    
DOCKED: USER    (1) Final Intermolecular Energy     =  -14.10 kcal/mol
DOCKED: USER        vdW + Hbond + desolv Energy     =  -14.10 kcal/mol
DOCKED: USER        Electrostatic Energy            =   +0.00 kcal/mol
DOCKED: USER    (2) Final Total Internal Energy     =   -2.37 kcal/mol
DOCKED: USER    (3) Torsional Free Energy           =   +2.68 kcal/mol
DOCKED: USER    (4) Unbound System's Energy  [=(2)] =   -2.37 kcal/mol
DOCKED: USER    
DOCKED: USER    
DOCKED: USER    NEWDPF move ligand.dum.pdbqt
DOCKED: USER    NEWDPF about 1.619000 0.086000 0.013000
DOCKED: USER    NEWDPF tran0 38.110962 16.059171 122.214521
DOCKED: USER    NEWDPF quaternion0 -0.519796 0.208669 -0.642970 0.522359
DOCKED: USER    NEWDPF axisangle0 -0.609570 0.244708 -0.754017 117.018764
DOCKED: USER    NEWDPF quat0 -0.609570 0.244708 -0.754017 117.018764
DOCKED: USER    NEWDPF dihe0 -170.80 137.97 -20.27 -86.53 112.14 -114.67 114.91 179.54 -4.84 
DOCKED: USER  keepresnum = 1 
DOCKED: USER  
DOCKED: REMARK  Name = 
DOCKED: REMARK  11 active torsions:
DOCKED: REMARK  status: ('A' for Active; 'I' for Inactive)
DOCKED: REMARK    1  A    between atoms: C_2  and  O_3
DOCKED: REMARK    2  A    between atoms: O_3  and  C_4
DOCKED: REMARK    3  A    between atoms: C_4  and  C_5
DOCKED: REMARK    4  A    between atoms: C_10  and  C_11
DOCKED: REMARK    5  A    between atoms: C_11  and  N_12
DOCKED: REMARK    6  A    between atoms: N_12  and  C_13
DOCKED: REMARK    7  A    between atoms: N_12  and  C_15
DOCKED: REMARK    8  A    between atoms: C_13  and  C_14
DOCKED: REMARK    9  A    between atoms: C_15  and  C_16
DOCKED: REMARK   10  A    between atoms: N_21  and  C_22
DOCKED: REMARK   11  A    between atoms: C_25  and  C_26
DOCKED: REMARK                            x       y       z     vdW  Elec       q    Type
DOCKED: REMARK                         _______ _______ _______ _____ _____    ______ ____
DOCKED: USER                              x       y       z     vdW  Elec       q    Type
DOCKED: USER                           _______ _______ _______ _____ _____    ______ ____
DOCKED: ROOT
DOCKED: ATOM      1  C   UNL     1      37.375  18.245 121.568 -0.12 -0.00    +0.000 C 
DOCKED: ENDROOT
DOCKED: BRANCH   1   2
DOCKED: ATOM      2  C   UNL     1      37.254  17.387 120.342 -0.10 -0.00    +0.000 A 
DOCKED: ATOM      3  C   UNL     1      35.995  17.001 119.861 -0.15 -0.00    +0.000 A 
DOCKED: ATOM      4  C   UNL     1      35.888  16.187 118.729 -0.10 -0.00    +0.000 A 
DOCKED: ATOM      5  C   UNL     1      37.042  15.737 118.071 -0.16 -0.00    +0.000 A 
DOCKED: ATOM      6  C   UNL     1      36.945  14.913 116.940 -0.22 -0.00    +0.000 A 
DOCKED: ATOM      7  C   UNL     1      38.104  14.436 116.305 -0.28 -0.00    +0.000 A 
DOCKED: ATOM      8  C   UNL     1      39.364  14.827 116.786 -0.13 -0.00    +0.000 A 
DOCKED: ATOM      9  C   UNL     1      39.470  15.655 117.907 -0.13 -0.00    +0.000 A 
DOCKED: ATOM     10  C   UNL     1      38.316  16.111 118.560 -0.12 -0.00    +0.000 A 
DOCKED: ATOM     11  C   UNL     1      38.414  16.935 119.692 -0.08 -0.00    +0.000 A 
DOCKED: ATOM     12  CM  UNL     1      37.151  16.560 119.209 +0.00 -0.00    +0.000 AC
DOCKED: ATOM     13  CM  UNL     1      38.207  15.280 117.428 +0.00 -0.00    +0.000 AC
DOCKED: BRANCH   7  12
DOCKED: ATOM     14  C   UNL     1      37.991  13.560 115.083 -0.45 -0.00    +0.000 C 
DOCKED: BRANCH  12  13
DOCKED: ATOM     15  N   UNL     1      37.303  14.270 113.983 -0.26 -0.00    +0.000 N 
DOCKED: ATOM     16  H   UNL     1      36.550  14.751 114.476 +0.00 -0.00    +0.000 HD
DOCKED: BRANCH  13  15
DOCKED: ATOM     17  C   UNL     1      38.097  15.357 113.370 -0.18 -0.00    +0.000 C 
DOCKED: ATOM     18  C   UNL     1      37.741  16.750 113.894 -0.08 -0.00    +0.000 C 
DOCKED: ENDBRANCH  13  15
DOCKED: BRANCH  13  17
DOCKED: ATOM     19  C   UNL     1      36.530  13.437 113.027 -0.33 -0.00    +0.000 C 
DOCKED: ATOM     20  C   UNL     1      35.027  13.340 113.324 -0.30 -0.00    +0.000 C 
DOCKED: ENDBRANCH  13  17
DOCKED: ENDBRANCH  12  13
DOCKED: ENDBRANCH   7  12
DOCKED: ENDBRANCH   1   2
DOCKED: BRANCH   1  19
DOCKED: ATOM     21  O   UNL     1      37.759  17.434 122.673 -0.17 -0.00    +0.000 OA
DOCKED: BRANCH  19  21
DOCKED: ATOM     22  O   UNL     1      39.061  15.531 122.757 -0.36 -0.00    +0.000 OA
DOCKED: ATOM     23  C   UNL     1      37.925  16.049 122.573 -0.29 -0.00    +0.000 C 
DOCKED: ATOM     24  N   UNL     1      36.798  15.237 122.215 -0.30 -0.00    +0.000 N 
DOCKED: ATOM     25  H   UNL     1      35.962  15.694 121.966 -0.01 -0.00    +0.000 HD
DOCKED: BRANCH  22  24
DOCKED: ATOM     26  C   UNL     1      36.808  13.800 122.198 -0.37 -0.00    +0.000 A 
DOCKED: ATOM     27  C   UNL     1      36.251  13.094 123.274 -0.54 -0.00    +0.000 A 
DOCKED: ATOM     28  C   UNL     1      36.270  11.698 123.295 -0.62 -0.00    +0.000 A 
DOCKED: ATOM     29  C   UNL     1      36.869  10.976 122.246 -0.53 -0.00    +0.000 A 
DOCKED: ATOM     30  C   UNL     1      37.433  11.686 121.171 -0.39 -0.00    +0.000 A 
DOCKED: ATOM     31  C   UNL     1      37.412  13.083 121.152 -0.43 -0.00    +0.000 A 
DOCKED: ATOM     32  CM  UNL     1      36.841  12.389 122.222 +0.00 -0.00    +0.000 AC
DOCKED: BRANCH  27  30
DOCKED: ATOM     33  C   UNL     1      36.902   9.492 122.252 -0.66 -0.00    +0.000 C 
DOCKED: ATOM     34  N   UNL     1      37.205   8.755 123.442 -0.60 -0.00    +0.000 N 
DOCKED: ATOM     35  O   UNL     1      37.128   7.405 123.444 -2.45 -0.00    +0.000 OA
DOCKED: ATOM     36  O   UNL     1      36.671   8.861 121.184 -2.59 -0.00    +0.000 OA
DOCKED: ATOM     37  H   UNL     1      37.472   9.234 124.259 -0.64 -0.00    +0.000 HD
DOCKED: ENDBRANCH  27  30
DOCKED: ENDBRANCH  22  24
DOCKED: ENDBRANCH  19  21
DOCKED: ENDBRANCH   1  19
DOCKED: TORSDOF 9DOCKED: TER
DOCKED: ENDMDL
________________________________________________________________________________


	BEGINNING GENETIC ALGORITHM DOCKING 26 of 100
Run: 26 Seed: 29114035 1246797807 [ Run 26 of 100 GA/GALS ]
Beginning LAMARCKIAN GENETIC ALGORITHM (LGA), with a maximum of 2500000 energy evaluations.

Final-Value: -16.342


	FINAL GENETIC ALGORITHM DOCKED STATE
	_______________________________________________


Detailed state:  trans 38.556 16.815 121.437 quatxyzw -0.714998 0.053856 -0.656230 0.235029 center 1.619 0.086 0.013 ntor 9 -180.0000 -12.8231 169.1931 -180.0000 -36.6976 39.0612 -179.9873 126.2883 38.3611
State:	 38.556  16.815 121.437  -0.736  0.055 -0.675 152.813   -180.00  -12.82  169.19 -180.00  -36.70   39.06 -179.99  126.29   38.36

DOCKED: MODEL       26
DOCKED: USER    Run = 26
DOCKED: USER    DPF = ligand_dock.biased.dpf
DOCKED: USER  
DOCKED: USER    Estimated Free Energy of Binding    =  -11.61 kcal/mol  [=(1)+(2)+(3)-(4)]
DOCKED: USER    Estimated Inhibition Constant, Ki   =    3.07 nM (nanomolar)  [Temperature = 298.15 K]
DOCKED: USER    
DOCKED: USER    (1) Final Intermolecular Energy     =  -14.30 kcal/mol
DOCKED: USER        vdW + Hbond + desolv Energy     =  -14.30 kcal/mol
DOCKED: USER        Electrostatic Energy            =   +0.00 kcal/mol
DOCKED: USER    (2) Final Total Internal Energy     =   -2.04 kcal/mol
DOCKED: USER    (3) Torsional Free Energy           =   +2.68 kcal/mol
DOCKED: USER    (4) Unbound System's Energy  [=(2)] =   -2.04 kcal/mol
DOCKED: USER    
DOCKED: USER    
DOCKED: USER    NEWDPF move ligand.dum.pdbqt
DOCKED: USER    NEWDPF about 1.619000 0.086000 0.013000
DOCKED: USER    NEWDPF tran0 38.555776 16.815479 121.436645
DOCKED: USER    NEWDPF quaternion0 -0.714998 0.053856 -0.656230 0.235029
DOCKED: USER    NEWDPF axisangle0 -0.735604 0.055408 -0.675142 152.813284
DOCKED: USER    NEWDPF quat0 -0.735604 0.055408 -0.675142 152.813284
DOCKED: USER    NEWDPF dihe0 -180.00 -12.82 169.19 -180.00 -36.70 39.06 -179.99 126.29 38.36 
DOCKED: USER  keepresnum = 1 
DOCKED: USER  
DOCKED: REMARK  Name = 
DOCKED: REMARK  11 active torsions:
DOCKED: REMARK  status: ('A' for Active; 'I' for Inactive)
DOCKED: REMARK    1  A    between atoms: C_2  and  O_3
DOCKED: REMARK    2  A    between atoms: O_3  and  C_4
DOCKED: REMARK    3  A    between atoms: C_4  and  C_5
DOCKED: REMARK    4  A    between atoms: C_10  and  C_11
DOCKED: REMARK    5  A    between atoms: C_11  and  N_12
DOCKED: REMARK    6  A    between atoms: N_12  and  C_13
DOCKED: REMARK    7  A    between atoms: N_12  and  C_15
DOCKED: REMARK    8  A    between atoms: C_13  and  C_14
DOCKED: REMARK    9  A    between atoms: C_15  and  C_16
DOCKED: REMARK   10  A    between atoms: N_21  and  C_22
DOCKED: REMARK   11  A    between atoms: C_25  and  C_26
DOCKED: REMARK                            x       y       z     vdW  Elec       q    Type
DOCKED: REMARK                         _______ _______ _______ _____ _____    ______ ____
DOCKED: USER                              x       y       z     vdW  Elec       q    Type
DOCKED: USER                           _______ _______ _______ _____ _____    ______ ____
DOCKED: ROOT
DOCKED: ATOM      1  C   UNL     1      36.587  18.141 121.761 -0.18 -0.00    +0.000 C 
DOCKED: ENDROOT
DOCKED: BRANCH   1   2
DOCKED: ATOM      2  C   UNL     1      36.525  17.646 120.345 -0.13 -0.00    +0.000 A 
DOCKED: ATOM      3  C   UNL     1      35.290  17.450 119.710 -0.14 -0.00    +0.000 A 
DOCKED: ATOM      4  C   UNL     1      35.237  16.972 118.396 -0.11 -0.00    +0.000 A 
DOCKED: ATOM      5  C   UNL     1      36.420  16.670 117.707 -0.11 -0.00    +0.000 A 
DOCKED: ATOM      6  C   UNL     1      36.377  16.181 116.392 -0.10 -0.00    +0.000 A 
DOCKED: ATOM      7  C   UNL     1      37.562  15.847 115.717 -0.12 -0.00    +0.000 A 
DOCKED: ATOM      8  C   UNL     1      38.797  16.047 116.353 -0.13 -0.00    +0.000 A 
DOCKED: ATOM      9  C   UNL     1      38.851  16.542 117.660 -0.09 -0.00    +0.000 A 
DOCKED: ATOM     10  C   UNL     1      37.669  16.852 118.347 -0.08 -0.00    +0.000 A 
DOCKED: ATOM     11  C   UNL     1      37.713  17.340 119.662 -0.07 -0.00    +0.000 A 
DOCKED: ATOM     12  CM  UNL     1      36.475  17.155 119.028 +0.00 -0.00    +0.000 AC
DOCKED: ATOM     13  CM  UNL     1      37.613  16.356 117.029 +0.00 -0.00    +0.000 AC
DOCKED: BRANCH   7  12
DOCKED: ATOM     14  C   UNL     1      37.507  15.333 114.301 -0.18 -0.00    +0.000 C 
DOCKED: BRANCH  12  13
DOCKED: ATOM     15  N   UNL     1      37.338  13.864 114.277 -0.32 -0.00    +0.000 N 
DOCKED: ATOM     16  H   UNL     1      38.020  13.581 113.572 -0.02 -0.00    +0.000 HD
DOCKED: BRANCH  13  15
DOCKED: ATOM     17  C   UNL     1      37.776  13.180 115.512 -0.45 -0.00    +0.000 C 
DOCKED: ATOM     18  C   UNL     1      39.074  12.385 115.348 -0.56 -0.00    +0.000 C 
DOCKED: ENDBRANCH  13  15
DOCKED: BRANCH  13  17
DOCKED: ATOM     19  C   UNL     1      36.081  13.343 113.680 -0.32 -0.00    +0.000 C 
DOCKED: ATOM     20  C   UNL     1      34.793  13.917 114.286 -0.26 -0.00    +0.000 C 
DOCKED: ENDBRANCH  13  17
DOCKED: ENDBRANCH  12  13
DOCKED: ENDBRANCH   7  12
DOCKED: ENDBRANCH   1   2
DOCKED: BRANCH   1  19
DOCKED: ATOM     21  O   UNL     1      37.707  17.554 122.415 -0.15 -0.00    +0.000 OA
DOCKED: BRANCH  19  21
DOCKED: ATOM     22  O   UNL     1      38.902  15.704 123.100 -0.35 -0.00    +0.000 OA
DOCKED: ATOM     23  C   UNL     1      37.900  16.172 122.492 -0.27 -0.00    +0.000 C 
DOCKED: ATOM     24  N   UNL     1      36.971  15.301 121.832 -0.26 -0.00    +0.000 N 
DOCKED: ATOM     25  H   UNL     1      36.274  15.713 121.271 -0.01 -0.00    +0.000 HD
DOCKED: BRANCH  22  24
DOCKED: ATOM     26  C   UNL     1      36.990  13.868 121.935 -0.35 -0.00    +0.000 A 
DOCKED: ATOM     27  C   UNL     1      37.446  13.105 120.850 -0.43 -0.00    +0.000 A 
DOCKED: ATOM     28  C   UNL     1      37.451  11.710 120.914 -0.42 -0.00    +0.000 A 
DOCKED: ATOM     29  C   UNL     1      36.975  11.045 122.059 -0.49 -0.00    +0.000 A 
DOCKED: ATOM     30  C   UNL     1      36.511  11.812 123.144 -0.61 -0.00    +0.000 A 
DOCKED: ATOM     31  C   UNL     1      36.508  13.208 123.078 -0.52 -0.00    +0.000 A 
DOCKED: ATOM     32  CM  UNL     1      36.980  12.458 121.997 +0.00 -0.00    +0.000 AC
DOCKED: BRANCH  27  30
DOCKED: ATOM     33  C   UNL     1      36.969   9.563 122.145 -0.63 -0.00    +0.000 C 
DOCKED: ATOM     34  N   UNL     1      37.178   8.886 123.389 -0.58 -0.00    +0.000 N 
DOCKED: ATOM     35  O   UNL     1      37.065   7.540 123.457 -2.57 -0.00    +0.000 OA
DOCKED: ATOM     36  O   UNL     1      36.789   8.881 121.099 -2.64 -0.00    +0.000 OA
DOCKED: ATOM     37  H   UNL     1      37.405   9.401 124.196 -0.63 -0.00    +0.000 HD
DOCKED: ENDBRANCH  27  30
DOCKED: ENDBRANCH  22  24
DOCKED: ENDBRANCH  19  21
DOCKED: ENDBRANCH   1  19
DOCKED: TORSDOF 9DOCKED: TER
DOCKED: ENDMDL
________________________________________________________________________________


	BEGINNING GENETIC ALGORITHM DOCKING 27 of 100
Run: 27 Seed: 1765925996 1566235140 [ Run 27 of 100 GA/GALS ]
Beginning LAMARCKIAN GENETIC ALGORITHM (LGA), with a maximum of 2500000 energy evaluations.

Final-Value: -16.022


	FINAL GENETIC ALGORITHM DOCKED STATE
	_______________________________________________


Detailed state:  trans 36.293 17.475 123.171 quatxyzw -0.544680 -0.023178 0.809748 0.217013 center 1.619 0.086 0.013 ntor 9 -155.2999 27.4595 168.5343 168.3374 167.9820 147.2034 -71.7870 76.8475 180.0000
State:	 36.293  17.475 123.171  -0.558 -0.024  0.830 154.933   -155.30   27.46  168.53  168.34  167.98  147.20  -71.79   76.85  180.00

DOCKED: MODEL       27
DOCKED: USER    Run = 27
DOCKED: USER    DPF = ligand_dock.biased.dpf
DOCKED: USER  
DOCKED: USER    Estimated Free Energy of Binding    =  -11.91 kcal/mol  [=(1)+(2)+(3)-(4)]
DOCKED: USER    Estimated Inhibition Constant, Ki   =    1.87 nM (nanomolar)  [Temperature = 298.15 K]
DOCKED: USER    
DOCKED: USER    (1) Final Intermolecular Energy     =  -14.59 kcal/mol
DOCKED: USER        vdW + Hbond + desolv Energy     =  -14.59 kcal/mol
DOCKED: USER        Electrostatic Energy            =   +0.00 kcal/mol
DOCKED: USER    (2) Final Total Internal Energy     =   -1.43 kcal/mol
DOCKED: USER    (3) Torsional Free Energy           =   +2.68 kcal/mol
DOCKED: USER    (4) Unbound System's Energy  [=(2)] =   -1.43 kcal/mol
DOCKED: USER    
DOCKED: USER    
DOCKED: USER    NEWDPF move ligand.dum.pdbqt
DOCKED: USER    NEWDPF about 1.619000 0.086000 0.013000
DOCKED: USER    NEWDPF tran0 36.293261 17.474967 123.170568
DOCKED: USER    NEWDPF quaternion0 -0.544680 -0.023178 0.809748 0.217013
DOCKED: USER    NEWDPF axisangle0 -0.557978 -0.023744 0.829516 154.932650
DOCKED: USER    NEWDPF quat0 -0.557978 -0.023744 0.829516 154.932650
DOCKED: USER    NEWDPF dihe0 -155.30 27.46 168.53 168.34 167.98 147.20 -71.79 76.85 180.00 
DOCKED: USER  keepresnum = 1 
DOCKED: USER  
DOCKED: REMARK  Name = 
DOCKED: REMARK  11 active torsions:
DOCKED: REMARK  status: ('A' for Active; 'I' for Inactive)
DOCKED: REMARK    1  A    between atoms: C_2  and  O_3
DOCKED: REMARK    2  A    between atoms: O_3  and  C_4
DOCKED: REMARK    3  A    between atoms: C_4  and  C_5
DOCKED: REMARK    4  A    between atoms: C_10  and  C_11
DOCKED: REMARK    5  A    between atoms: C_11  and  N_12
DOCKED: REMARK    6  A    between atoms: N_12  and  C_13
DOCKED: REMARK    7  A    between atoms: N_12  and  C_15
DOCKED: REMARK    8  A    between atoms: C_13  and  C_14
DOCKED: REMARK    9  A    between atoms: C_15  and  C_16
DOCKED: REMARK   10  A    between atoms: N_21  and  C_22
DOCKED: REMARK   11  A    between atoms: C_25  and  C_26
DOCKED: REMARK                            x       y       z     vdW  Elec       q    Type
DOCKED: REMARK                         _______ _______ _______ _____ _____    ______ ____
DOCKED: USER                              x       y       z     vdW  Elec       q    Type
DOCKED: USER                           _______ _______ _______ _____ _____    ______ ____
DOCKED: ROOT
DOCKED: ATOM      1  C   UNL     1      38.104  18.296 121.835 -0.09 -0.00    +0.000 C 
DOCKED: ENDROOT
DOCKED: BRANCH   1   2
DOCKED: ATOM      2  C   UNL     1      38.440  18.654 123.254 -0.11 -0.00    +0.000 A 
DOCKED: ATOM      3  C   UNL     1      37.670  19.594 123.955 -0.10 -0.00    +0.000 A 
DOCKED: ATOM      4  C   UNL     1      37.997  19.937 125.271 -0.09 -0.00    +0.000 A 
DOCKED: ATOM      5  C   UNL     1      39.108  19.354 125.897 -0.14 -0.00    +0.000 A 
DOCKED: ATOM      6  C   UNL     1      39.450  19.700 127.214 -0.13 -0.00    +0.000 A 
DOCKED: ATOM      7  C   UNL     1      40.583  19.140 127.825 -0.22 -0.00    +0.000 A 
DOCKED: ATOM      8  C   UNL     1      41.350  18.197 127.123 -0.37 -0.00    +0.000 A 
DOCKED: ATOM      9  C   UNL     1      41.013  17.840 125.814 -0.27 -0.00    +0.000 A 
DOCKED: ATOM     10  C   UNL     1      39.898  18.416 125.190 -0.24 -0.00    +0.000 A 
DOCKED: ATOM     11  C   UNL     1      39.557  18.071 123.874 -0.19 -0.00    +0.000 A 
DOCKED: ATOM     12  CM  UNL     1      38.778  19.004 124.574 +0.00 -0.00    +0.000 AC
DOCKED: ATOM     13  CM  UNL     1      40.234  18.775 126.511 +0.00 -0.00    +0.000 AC
DOCKED: BRANCH   7  12
DOCKED: ATOM     14  C   UNL     1      40.937  19.508 129.244 -0.16 -0.00    +0.000 C 
DOCKED: BRANCH  12  13
DOCKED: ATOM     15  N   UNL     1      40.875  18.324 130.129 -0.24 -0.00    +0.000 N 
DOCKED: ATOM     16  H   UNL     1      40.559  18.731 131.010 +0.00 -0.00    +0.000 HD
DOCKED: BRANCH  13  15
DOCKED: ATOM     17  C   UNL     1      39.822  17.350 129.771 -0.36 -0.00    +0.000 C 
DOCKED: ATOM     18  C   UNL     1      38.440  17.708 130.322 -0.26 -0.00    +0.000 C 
DOCKED: ENDBRANCH  13  15
DOCKED: BRANCH  13  17
DOCKED: ATOM     19  C   UNL     1      42.172  17.728 130.543 -0.31 -0.00    +0.000 C 
DOCKED: ATOM     20  C   UNL     1      43.387  18.204 129.736 -0.42 -0.00    +0.000 C 
DOCKED: ENDBRANCH  13  17
DOCKED: ENDBRANCH  12  13
DOCKED: ENDBRANCH   7  12
DOCKED: ENDBRANCH   1   2
DOCKED: BRANCH   1  19
DOCKED: ATOM     21  O   UNL     1      36.917  17.510 121.817 -0.16 -0.00    +0.000 OA
DOCKED: BRANCH  19  21
DOCKED: ATOM     22  O   UNL     1      37.192  15.677 120.444 -0.22 -0.00    +0.000 OA
DOCKED: ATOM     23  C   UNL     1      36.926  16.131 121.591 -0.23 -0.00    +0.000 C 
DOCKED: ATOM     24  N   UNL     1      36.582  15.247 122.667 -0.34 -0.00    +0.000 N 
DOCKED: ATOM     25  H   UNL     1      36.266  15.648 123.509 -0.01 -0.00    +0.000 HD
DOCKED: BRANCH  22  24
DOCKED: ATOM     26  C   UNL     1      36.669  13.814 122.598 -0.42 -0.00    +0.000 A 
DOCKED: ATOM     27  C   UNL     1      37.159  13.209 121.431 -0.41 -0.00    +0.000 A 
DOCKED: ATOM     28  C   UNL     1      37.230  11.818 121.327 -0.45 -0.00    +0.000 A 
DOCKED: ATOM     29  C   UNL     1      36.789  11.000 122.384 -0.55 -0.00    +0.000 A 
DOCKED: ATOM     30  C   UNL     1      36.292  11.608 123.551 -0.62 -0.00    +0.000 A 
DOCKED: ATOM     31  C   UNL     1      36.223  13.000 123.652 -0.55 -0.00    +0.000 A 
DOCKED: ATOM     32  CM  UNL     1      36.727  12.408 122.491 +0.00 -0.00    +0.000 AC
DOCKED: BRANCH  27  30
DOCKED: ATOM     33  C   UNL     1      36.854   9.519 122.292 -0.67 -0.00    +0.000 C 
DOCKED: ATOM     34  N   UNL     1      37.112   8.709 123.444 -0.63 -0.00    +0.000 N 
DOCKED: ATOM     35  O   UNL     1      37.064   7.361 123.352 -2.41 -0.00    +0.000 OA
DOCKED: ATOM     36  O   UNL     1      36.692   8.959 121.173 -2.62 -0.00    +0.000 OA
DOCKED: ATOM     37  H   UNL     1      37.327   9.136 124.305 -0.60 -0.00    +0.000 HD
DOCKED: ENDBRANCH  27  30
DOCKED: ENDBRANCH  22  24
DOCKED: ENDBRANCH  19  21
DOCKED: ENDBRANCH   1  19
DOCKED: TORSDOF 9DOCKED: TER
DOCKED: ENDMDL
________________________________________________________________________________


	BEGINNING GENETIC ALGORITHM DOCKING 28 of 100
Run: 28 Seed: 295453944 1165871232 [ Run 28 of 100 GA/GALS ]
Beginning LAMARCKIAN GENETIC ALGORITHM (LGA), with a maximum of 2500000 energy evaluations.

Final-Value: -16.914


	FINAL GENETIC ALGORITHM DOCKED STATE
	_______________________________________________


Detailed state:  trans 37.445 17.143 120.201 quatxyzw 0.968184 -0.030736 0.102664 -0.226131 center 1.619 0.086 0.013 ntor 9 54.8734 127.1450 -0.9349 -166.9574 152.5635 -49.4087 147.6205 125.8658 9.5819
State:	 37.445  17.143 120.201   0.994 -0.032  0.105 -153.861     54.87  127.15   -0.93 -166.96  152.56  -49.41  147.62  125.87    9.58

DOCKED: MODEL       28
DOCKED: USER    Run = 28
DOCKED: USER    DPF = ligand_dock.biased.dpf
DOCKED: USER  
DOCKED: USER    Estimated Free Energy of Binding    =  -12.51 kcal/mol  [=(1)+(2)+(3)-(4)]
DOCKED: USER    Estimated Inhibition Constant, Ki   =  675.44 pM (picomolar)  [Temperature = 298.15 K]
DOCKED: USER    
DOCKED: USER    (1) Final Intermolecular Energy     =  -15.20 kcal/mol
DOCKED: USER        vdW + Hbond + desolv Energy     =  -15.20 kcal/mol
DOCKED: USER        Electrostatic Energy            =   +0.00 kcal/mol
DOCKED: USER    (2) Final Total Internal Energy     =   -1.72 kcal/mol
DOCKED: USER    (3) Torsional Free Energy           =   +2.68 kcal/mol
DOCKED: USER    (4) Unbound System's Energy  [=(2)] =   -1.72 kcal/mol
DOCKED: USER    
DOCKED: USER    
DOCKED: USER    NEWDPF move ligand.dum.pdbqt
DOCKED: USER    NEWDPF about 1.619000 0.086000 0.013000
DOCKED: USER    NEWDPF tran0 37.444715 17.142871 120.200891
DOCKED: USER    NEWDPF quaternion0 0.968184 -0.030736 0.102664 -0.226131
DOCKED: USER    NEWDPF axisangle0 0.993930 -0.031553 0.105394 -153.861206
DOCKED: USER    NEWDPF quat0 0.993930 -0.031553 0.105394 -153.861206
DOCKED: USER    NEWDPF dihe0 54.87 127.15 -0.93 -166.96 152.56 -49.41 147.62 125.87 9.58 
DOCKED: USER  keepresnum = 1 
DOCKED: USER  
DOCKED: REMARK  Name = 
DOCKED: REMARK  11 active torsions:
DOCKED: REMARK  status: ('A' for Active; 'I' for Inactive)
DOCKED: REMARK    1  A    between atoms: C_2  and  O_3
DOCKED: REMARK    2  A    between atoms: O_3  and  C_4
DOCKED: REMARK    3  A    between atoms: C_4  and  C_5
DOCKED: REMARK    4  A    between atoms: C_10  and  C_11
DOCKED: REMARK    5  A    between atoms: C_11  and  N_12
DOCKED: REMARK    6  A    between atoms: N_12  and  C_13
DOCKED: REMARK    7  A    between atoms: N_12  and  C_15
DOCKED: REMARK    8  A    between atoms: C_13  and  C_14
DOCKED: REMARK    9  A    between atoms: C_15  and  C_16
DOCKED: REMARK   10  A    between atoms: N_21  and  C_22
DOCKED: REMARK   11  A    between atoms: C_25  and  C_26
DOCKED: REMARK                            x       y       z     vdW  Elec       q    Type
DOCKED: REMARK                         _______ _______ _______ _____ _____    ______ ____
DOCKED: USER                              x       y       z     vdW  Elec       q    Type
DOCKED: USER                           _______ _______ _______ _____ _____    ______ ____
DOCKED: ROOT
DOCKED: ATOM      1  C   UNL     1      37.395  18.472 122.193 -0.13 -0.00    +0.000 C 
DOCKED: ENDROOT
DOCKED: BRANCH   1   2
DOCKED: ATOM      2  C   UNL     1      35.967  18.333 121.751 -0.20 -0.00    +0.000 A 
DOCKED: ATOM      3  C   UNL     1      35.004  17.782 122.609 -0.31 -0.00    +0.000 A 
DOCKED: ATOM      4  C   UNL     1      33.678  17.638 122.187 -0.21 -0.00    +0.000 A 
DOCKED: ATOM      5  C   UNL     1      33.303  18.031 120.894 -0.26 -0.00    +0.000 A 
DOCKED: ATOM      6  C   UNL     1      31.977  17.882 120.459 -0.18 -0.00    +0.000 A 
DOCKED: ATOM      7  C   UNL     1      31.612  18.245 119.152 -0.37 -0.00    +0.000 A 
DOCKED: ATOM      8  C   UNL     1      32.577  18.800 118.296 -0.22 -0.00    +0.000 A 
DOCKED: ATOM      9  C   UNL     1      33.898  18.960 118.724 -0.21 -0.00    +0.000 A 
DOCKED: ATOM     10  C   UNL     1      34.272  18.575 120.019 -0.27 -0.00    +0.000 A 
DOCKED: ATOM     11  C   UNL     1      35.598  18.723 120.454 -0.19 -0.00    +0.000 A 
DOCKED: ATOM     12  CM  UNL     1      34.637  18.180 121.320 +0.00 -0.00    +0.000 AC
DOCKED: ATOM     13  CM  UNL     1      32.940  18.415 119.590 +0.00 -0.00    +0.000 AC
DOCKED: BRANCH   7  12
DOCKED: ATOM     14  C   UNL     1      30.184  18.092 118.695 -0.40 -0.00    +0.000 C 
DOCKED: BRANCH  12  13
DOCKED: ATOM     15  N   UNL     1      29.480  19.393 118.710 -0.29 -0.00    +0.000 N 
DOCKED: ATOM     16  H   UNL     1      28.699  19.208 119.340 -0.45 -0.00    +0.000 HD
DOCKED: BRANCH  13  15
DOCKED: ATOM     17  C   UNL     1      30.233  20.485 119.364 -0.34 -0.00    +0.000 C 
DOCKED: ATOM     18  C   UNL     1      30.381  21.737 118.496 -0.21 -0.00    +0.000 C 
DOCKED: ENDBRANCH  13  15
DOCKED: BRANCH  13  17
DOCKED: ATOM     19  C   UNL     1      28.758  19.779 117.470 -0.17 -0.00    +0.000 C 
DOCKED: ATOM     20  C   UNL     1      27.329  19.231 117.359 -0.19 -0.00    +0.000 C 
DOCKED: ENDBRANCH  13  17
DOCKED: ENDBRANCH  12  13
DOCKED: ENDBRANCH   7  12
DOCKED: ENDBRANCH   1   2
DOCKED: BRANCH   1  19
DOCKED: ATOM     21  O   UNL     1      38.226  17.679 121.352 -0.09 -0.00    +0.000 OA
DOCKED: BRANCH  19  21
DOCKED: ATOM     22  O   UNL     1      38.327  15.763 120.072 -0.18 -0.00    +0.000 OA
DOCKED: ATOM     23  C   UNL     1      38.029  16.307 121.170 -0.18 -0.00    +0.000 C 
DOCKED: ATOM     24  N   UNL     1      37.441  15.541 122.231 -0.27 -0.00    +0.000 N 
DOCKED: ATOM     25  H   UNL     1      37.115  16.028 123.024 -0.01 -0.00    +0.000 HD
DOCKED: BRANCH  22  24
DOCKED: ATOM     26  C   UNL     1      37.297  14.111 122.216 -0.40 -0.00    +0.000 A 
DOCKED: ATOM     27  C   UNL     1      36.996  13.437 123.408 -0.50 -0.00    +0.000 A 
DOCKED: ATOM     28  C   UNL     1      36.876  12.045 123.427 -0.61 -0.00    +0.000 A 
DOCKED: ATOM     29  C   UNL     1      37.078  11.295 122.254 -0.48 -0.00    +0.000 A 
DOCKED: ATOM     30  C   UNL     1      37.386  11.973 121.061 -0.45 -0.00    +0.000 A 
DOCKED: ATOM     31  C   UNL     1      37.505  13.366 121.044 -0.41 -0.00    +0.000 A 
DOCKED: ATOM     32  CM  UNL     1      37.190  12.704 122.234 +0.00 -0.00    +0.000 AC
DOCKED: BRANCH  27  30
DOCKED: ATOM     33  C   UNL     1      36.958   9.815 122.254 -0.61 -0.00    +0.000 C 
DOCKED: ATOM     34  N   UNL     1      37.123   9.053 123.455 -0.56 -0.00    +0.000 N 
DOCKED: ATOM     35  O   UNL     1      36.907   7.718 123.447 -2.60 -0.00    +0.000 OA
DOCKED: ATOM     36  O   UNL     1      36.718   9.211 121.173 -2.63 -0.00    +0.000 OA
DOCKED: ATOM     37  H   UNL     1      37.396   9.502 124.287 -0.63 -0.00    +0.000 HD
DOCKED: ENDBRANCH  27  30
DOCKED: ENDBRANCH  22  24
DOCKED: ENDBRANCH  19  21
DOCKED: ENDBRANCH   1  19
DOCKED: TORSDOF 9DOCKED: TER
DOCKED: ENDMDL
________________________________________________________________________________


	BEGINNING GENETIC ALGORITHM DOCKING 29 of 100
Run: 29 Seed: 715810986 690169465 [ Run 29 of 100 GA/GALS ]
Beginning LAMARCKIAN GENETIC ALGORITHM (LGA), with a maximum of 2500000 energy evaluations.

Final-Value: -18.137


	FINAL GENETIC ALGORITHM DOCKED STATE
	_______________________________________________


Detailed state:  trans 36.371 16.621 122.439 quatxyzw -0.858596 -0.264579 0.263617 0.351165 center 1.619 0.086 0.013 ntor 9 123.0503 -62.3786 -171.0623 118.8950 -57.2437 -4.0742 -35.4226 137.7227 -134.0466
State:	 36.371  16.621 122.439  -0.917 -0.283  0.282 138.883    123.05  -62.38 -171.06  118.90  -57.24   -4.07  -35.42  137.72 -134.05

DOCKED: MODEL       29
DOCKED: USER    Run = 29
DOCKED: USER    DPF = ligand_dock.biased.dpf
DOCKED: USER  
DOCKED: USER    Estimated Free Energy of Binding    =  -13.96 kcal/mol  [=(1)+(2)+(3)-(4)]
DOCKED: USER    Estimated Inhibition Constant, Ki   =   58.08 pM (picomolar)  [Temperature = 298.15 K]
DOCKED: USER    
DOCKED: USER    (1) Final Intermolecular Energy     =  -16.65 kcal/mol
DOCKED: USER        vdW + Hbond + desolv Energy     =  -16.65 kcal/mol
DOCKED: USER        Electrostatic Energy            =   +0.00 kcal/mol
DOCKED: USER    (2) Final Total Internal Energy     =   -1.49 kcal/mol
DOCKED: USER    (3) Torsional Free Energy           =   +2.68 kcal/mol
DOCKED: USER    (4) Unbound System's Energy  [=(2)] =   -1.49 kcal/mol
DOCKED: USER    
DOCKED: USER    
DOCKED: USER    NEWDPF move ligand.dum.pdbqt
DOCKED: USER    NEWDPF about 1.619000 0.086000 0.013000
DOCKED: USER    NEWDPF tran0 36.371385 16.621470 122.439295
DOCKED: USER    NEWDPF quaternion0 -0.858596 -0.264579 0.263617 0.351165
DOCKED: USER    NEWDPF axisangle0 -0.916996 -0.282575 0.281547 138.882884
DOCKED: USER    NEWDPF quat0 -0.916996 -0.282575 0.281547 138.882884
DOCKED: USER    NEWDPF dihe0 123.05 -62.38 -171.06 118.90 -57.24 -4.07 -35.42 137.72 -134.05 
DOCKED: USER  keepresnum = 1 
DOCKED: USER  
DOCKED: REMARK  Name = 
DOCKED: REMARK  11 active torsions:
DOCKED: REMARK  status: ('A' for Active; 'I' for Inactive)
DOCKED: REMARK    1  A    between atoms: C_2  and  O_3
DOCKED: REMARK    2  A    between atoms: O_3  and  C_4
DOCKED: REMARK    3  A    between atoms: C_4  and  C_5
DOCKED: REMARK    4  A    between atoms: C_10  and  C_11
DOCKED: REMARK    5  A    between atoms: C_11  and  N_12
DOCKED: REMARK    6  A    between atoms: N_12  and  C_13
DOCKED: REMARK    7  A    between atoms: N_12  and  C_15
DOCKED: REMARK    8  A    between atoms: C_13  and  C_14
DOCKED: REMARK    9  A    between atoms: C_15  and  C_16
DOCKED: REMARK   10  A    between atoms: N_21  and  C_22
DOCKED: REMARK   11  A    between atoms: C_25  and  C_26
DOCKED: REMARK                            x       y       z     vdW  Elec       q    Type
DOCKED: REMARK                         _______ _______ _______ _____ _____    ______ ____
DOCKED: USER                              x       y       z     vdW  Elec       q    Type
DOCKED: USER                           _______ _______ _______ _____ _____    ______ ____
DOCKED: ROOT
DOCKED: ATOM      1  C   UNL     1      37.047  18.660 123.501 -0.17 -0.00    +0.000 C 
DOCKED: ENDROOT
DOCKED: BRANCH   1   2
DOCKED: ATOM      2  C   UNL     1      35.979  18.070 124.377 -0.23 -0.00    +0.000 A 
DOCKED: ATOM      3  C   UNL     1      35.069  17.135 123.862 -0.36 -0.00    +0.000 A 
DOCKED: ATOM      4  C   UNL     1      34.065  16.602 124.676 -0.42 -0.00    +0.000 A 
DOCKED: ATOM      5  C   UNL     1      33.951  17.008 126.014 -0.37 -0.00    +0.000 A 
DOCKED: ATOM      6  C   UNL     1      32.941  16.486 126.836 -0.15 -0.00    +0.000 A 
DOCKED: ATOM      7  C   UNL     1      32.808  16.921 128.164 -0.37 -0.00    +0.000 A 
DOCKED: ATOM      8  C   UNL     1      33.722  17.854 128.679 -0.19 -0.00    +0.000 A 
DOCKED: ATOM      9  C   UNL     1      34.737  18.374 127.869 -0.15 -0.00    +0.000 A 
DOCKED: ATOM     10  C   UNL     1      34.857  17.962 126.535 -0.17 -0.00    +0.000 A 
DOCKED: ATOM     11  C   UNL     1      35.866  18.485 125.713 -0.19 -0.00    +0.000 A 
DOCKED: ATOM     12  CM  UNL     1      34.964  17.543 125.196 -0.45 -0.00    +0.000 AC
DOCKED: ATOM     13  CM  UNL     1      33.836  17.434 127.350 -0.00 -0.00    +0.000 AC
DOCKED: BRANCH   7  12
DOCKED: ATOM     14  C   UNL     1      31.727  16.346 129.045 -0.37 -0.00    +0.000 C 
DOCKED: BRANCH  12  13
DOCKED: ATOM     15  N   UNL     1      30.659  17.340 129.289 -0.44 -0.00    +0.000 N 
DOCKED: ATOM     16  H   UNL     1      29.899  16.755 129.641 -0.55 -0.00    +0.000 HD
DOCKED: BRANCH  13  15
DOCKED: ATOM     17  C   UNL     1      30.944  18.282 130.392 -0.28 -0.00    +0.000 C 
DOCKED: ATOM     18  C   UNL     1      29.714  19.050 130.880 -0.23 -0.00    +0.000 C 
DOCKED: ENDBRANCH  13  15
DOCKED: BRANCH  13  17
DOCKED: ATOM     19  C   UNL     1      30.019  17.944 128.093 -0.36 -0.00    +0.000 C 
DOCKED: ATOM     20  C   UNL     1      30.464  19.380 127.779 -0.35 -0.00    +0.000 C 
DOCKED: ENDBRANCH  13  17
DOCKED: ENDBRANCH  12  13
DOCKED: ENDBRANCH   7  12
DOCKED: ENDBRANCH   1   2
DOCKED: BRANCH   1  19
DOCKED: ATOM     21  O   UNL     1      37.345  17.750 122.447 -0.15 -0.00    +0.000 OA
DOCKED: BRANCH  19  21
DOCKED: ATOM     22  O   UNL     1      38.031  15.956 123.724 -0.34 -0.00    +0.000 OA
DOCKED: ATOM     23  C   UNL     1      37.509  16.378 122.655 -0.27 -0.00    +0.000 C 
DOCKED: ATOM     24  N   UNL     1      37.120  15.465 121.620 -0.24 -0.00    +0.000 N 
DOCKED: ATOM     25  H   UNL     1      36.829  15.844 120.758 -0.00 -0.00    +0.000 HD
DOCKED: BRANCH  22  24
DOCKED: ATOM     26  C   UNL     1      37.125  14.034 121.756 -0.35 -0.00    +0.000 A 
DOCKED: ATOM     27  C   UNL     1      37.372  13.237 120.629 -0.41 -0.00    +0.000 A 
DOCKED: ATOM     28  C   UNL     1      37.357  11.843 120.727 -0.45 -0.00    +0.000 A 
DOCKED: ATOM     29  C   UNL     1      37.071  11.217 121.954 -0.47 -0.00    +0.000 A 
DOCKED: ATOM     30  C   UNL     1      36.817  12.019 123.082 -0.59 -0.00    +0.000 A 
DOCKED: ATOM     31  C   UNL     1      36.834  13.413 122.981 -0.50 -0.00    +0.000 A 
DOCKED: ATOM     32  CM  UNL     1      37.096  12.627 121.855 +0.00 -0.00    +0.000 AC
DOCKED: BRANCH  27  30
DOCKED: ATOM     33  C   UNL     1      37.048   9.738 122.078 -0.59 -0.00    +0.000 C 
DOCKED: ATOM     34  N   UNL     1      37.041   9.095 123.358 -0.60 -0.00    +0.000 N 
DOCKED: ATOM     35  O   UNL     1      36.916   7.751 123.443 -2.59 -0.00    +0.000 OA
DOCKED: ATOM     36  O   UNL     1      37.048   9.027 121.036 -2.71 -0.00    +0.000 OA
DOCKED: ATOM     37  H   UNL     1      37.129   9.633 124.177 -0.58 -0.00    +0.000 HD
DOCKED: ENDBRANCH  27  30
DOCKED: ENDBRANCH  22  24
DOCKED: ENDBRANCH  19  21
DOCKED: ENDBRANCH   1  19
DOCKED: TORSDOF 9DOCKED: TER
DOCKED: ENDMDL
________________________________________________________________________________


	BEGINNING GENETIC ALGORITHM DOCKING 30 of 100
Run: 30 Seed: 1381022862 207296325 [ Run 30 of 100 GA/GALS ]
Beginning LAMARCKIAN GENETIC ALGORITHM (LGA), with a maximum of 2500000 energy evaluations.

Final-Value: -16.454


	FINAL GENETIC ALGORITHM DOCKED STATE
	_______________________________________________


Detailed state:  trans 36.744 16.861 121.906 quatxyzw -0.064226 0.911023 -0.342987 0.219708 center 1.619 0.086 0.013 ntor 9 -57.8469 180.0000 163.9975 -19.7947 -172.9798 180.0000 -124.1105 -119.0978 -23.1710
State:	 36.744  16.861 121.906  -0.066  0.934 -0.352 154.616    -57.85  180.00  164.00  -19.79 -172.98  180.00 -124.11 -119.10  -23.17

DOCKED: MODEL       30
DOCKED: USER    Run = 30
DOCKED: USER    DPF = ligand_dock.biased.dpf
DOCKED: USER  
DOCKED: USER    Estimated Free Energy of Binding    =  -11.88 kcal/mol  [=(1)+(2)+(3)-(4)]
DOCKED: USER    Estimated Inhibition Constant, Ki   =    1.95 nM (nanomolar)  [Temperature = 298.15 K]
DOCKED: USER    
DOCKED: USER    (1) Final Intermolecular Energy     =  -14.57 kcal/mol
DOCKED: USER        vdW + Hbond + desolv Energy     =  -14.57 kcal/mol
DOCKED: USER        Electrostatic Energy            =   +0.00 kcal/mol
DOCKED: USER    (2) Final Total Internal Energy     =   -1.89 kcal/mol
DOCKED: USER    (3) Torsional Free Energy           =   +2.68 kcal/mol
DOCKED: USER    (4) Unbound System's Energy  [=(2)] =   -1.89 kcal/mol
DOCKED: USER    
DOCKED: USER    
DOCKED: USER    NEWDPF move ligand.dum.pdbqt
DOCKED: USER    NEWDPF about 1.619000 0.086000 0.013000
DOCKED: USER    NEWDPF tran0 36.744396 16.861306 121.906051
DOCKED: USER    NEWDPF quaternion0 -0.064226 0.911023 -0.342987 0.219708
DOCKED: USER    NEWDPF axisangle0 -0.065835 0.933841 -0.351577 154.616245
DOCKED: USER    NEWDPF quat0 -0.065835 0.933841 -0.351577 154.616245
DOCKED: USER    NEWDPF dihe0 -57.85 180.00 164.00 -19.79 -172.98 180.00 -124.11 -119.10 -23.17 
DOCKED: USER  keepresnum = 1 
DOCKED: USER  
DOCKED: REMARK  Name = 
DOCKED: REMARK  11 active torsions:
DOCKED: REMARK  status: ('A' for Active; 'I' for Inactive)
DOCKED: REMARK    1  A    between atoms: C_2  and  O_3
DOCKED: REMARK    2  A    between atoms: O_3  and  C_4
DOCKED: REMARK    3  A    between atoms: C_4  and  C_5
DOCKED: REMARK    4  A    between atoms: C_10  and  C_11
DOCKED: REMARK    5  A    between atoms: C_11  and  N_12
DOCKED: REMARK    6  A    between atoms: N_12  and  C_13
DOCKED: REMARK    7  A    between atoms: N_12  and  C_15
DOCKED: REMARK    8  A    between atoms: C_13  and  C_14
DOCKED: REMARK    9  A    between atoms: C_15  and  C_16
DOCKED: REMARK   10  A    between atoms: N_21  and  C_22
DOCKED: REMARK   11  A    between atoms: C_25  and  C_26
DOCKED: REMARK                            x       y       z     vdW  Elec       q    Type
DOCKED: REMARK                         _______ _______ _______ _____ _____    ______ ____
DOCKED: USER                              x       y       z     vdW  Elec       q    Type
DOCKED: USER                           _______ _______ _______ _____ _____    ______ ____
DOCKED: ROOT
DOCKED: ATOM      1  C   UNL     1      37.347  18.159 123.827 -0.20 -0.00    +0.000 C 
DOCKED: ENDROOT
DOCKED: BRANCH   1   2
DOCKED: ATOM      2  C   UNL     1      38.590  18.052 122.992 -0.13 -0.00    +0.000 A 
DOCKED: ATOM      3  C   UNL     1      38.873  19.009 122.006 -0.05 -0.00    +0.000 A 
DOCKED: ATOM      4  C   UNL     1      40.023  18.896 121.218 -0.03 -0.00    +0.000 A 
DOCKED: ATOM      5  C   UNL     1      40.898  17.815 121.397 -0.09 -0.00    +0.000 A 
DOCKED: ATOM      6  C   UNL     1      42.049  17.688 120.605 -0.09 -0.00    +0.000 A 
DOCKED: ATOM      7  C   UNL     1      42.904  16.586 120.764 -0.19 -0.00    +0.000 A 
DOCKED: ATOM      8  C   UNL     1      42.621  15.630 121.753 -0.33 -0.00    +0.000 A 
DOCKED: ATOM      9  C   UNL     1      41.481  15.753 122.552 -0.42 -0.00    +0.000 A 
DOCKED: ATOM     10  C   UNL     1      40.610  16.838 122.380 -0.22 -0.00    +0.000 A 
DOCKED: ATOM     11  C   UNL     1      39.459  16.964 123.172 -0.22 -0.00    +0.000 A 
DOCKED: ATOM     12  CM  UNL     1      39.742  17.930 122.194 +0.00 -0.00    +0.000 AC
DOCKED: ATOM     13  CM  UNL     1      41.761  16.718 121.575 +0.00 -0.00    +0.000 AC
DOCKED: BRANCH   7  12
DOCKED: ATOM     14  C   UNL     1      44.145  16.462 119.916 -0.21 -0.00    +0.000 C 
DOCKED: BRANCH  12  13
DOCKED: ATOM     15  N   UNL     1      45.306  16.047 120.734 -0.27 +0.00    +0.000 N 
DOCKED: ATOM     16  H   UNL     1      44.857  15.558 121.510 -0.01 +0.00    +0.000 HD
DOCKED: BRANCH  13  15
DOCKED: ATOM     17  C   UNL     1      46.163  15.024 120.098 -0.25 +0.00    +0.000 C 
DOCKED: ATOM     18  C   UNL     1      45.899  14.843 118.601 -0.38 -0.00    +0.000 C 
DOCKED: ENDBRANCH  13  15
DOCKED: BRANCH  13  17
DOCKED: ATOM     19  C   UNL     1      46.035  17.120 121.458 -0.24 +0.00    +0.000 C 
DOCKED: ATOM     20  C   UNL     1      46.454  16.761 122.890 -0.38 +0.00    +0.000 C 
DOCKED: ENDBRANCH  13  17
DOCKED: ENDBRANCH  12  13
DOCKED: ENDBRANCH   7  12
DOCKED: ENDBRANCH   1   2
DOCKED: BRANCH   1  19
DOCKED: ATOM     21  O   UNL     1      36.259  17.566 123.127 -0.23 -0.00    +0.000 OA
DOCKED: BRANCH  19  21
DOCKED: ATOM     22  O   UNL     1      36.097  15.937 121.501 -0.23 -0.00    +0.000 OA
DOCKED: ATOM     23  C   UNL     1      36.261  16.229 122.718 -0.33 -0.00    +0.000 C 
DOCKED: ATOM     24  N   UNL     1      36.404  15.199 123.705 -0.43 -0.00    +0.000 N 
DOCKED: ATOM     25  H   UNL     1      36.409  15.467 124.653 -0.04 -0.00    +0.000 HD
DOCKED: BRANCH  22  24
DOCKED: ATOM     26  C   UNL     1      36.541  13.800 123.404 -0.49 -0.00    +0.000 A 
DOCKED: ATOM     27  C   UNL     1      37.247  13.409 122.257 -0.45 -0.00    +0.000 A 
DOCKED: ATOM     28  C   UNL     1      37.374  12.058 121.926 -0.41 -0.00    +0.000 A 
DOCKED: ATOM     29  C   UNL     1      36.776  11.068 122.726 -0.58 -0.00    +0.000 A 
DOCKED: ATOM     30  C   UNL     1      36.062  11.462 123.873 -0.55 -0.00    +0.000 A 
DOCKED: ATOM     31  C   UNL     1      35.937  12.815 124.202 -0.31 -0.00    +0.000 A 
DOCKED: ATOM     32  CM  UNL     1      36.656  12.435 123.065 +0.00 -0.00    +0.000 AC
DOCKED: BRANCH  27  30
DOCKED: ATOM     33  C   UNL     1      36.897   9.627 122.390 -0.65 -0.00    +0.000 C 
DOCKED: ATOM     34  N   UNL     1      37.065   8.633 123.407 -0.66 -0.00    +0.000 N 
DOCKED: ATOM     35  O   UNL     1      37.069   7.320 123.082 -2.30 -0.00    +0.000 OA
DOCKED: ATOM     36  O   UNL     1      36.865   9.266 121.181 -2.63 -0.00    +0.000 OA
DOCKED: ATOM     37  H   UNL     1      37.178   8.907 124.346 -0.55 -0.00    +0.000 HD
DOCKED: ENDBRANCH  27  30
DOCKED: ENDBRANCH  22  24
DOCKED: ENDBRANCH  19  21
DOCKED: ENDBRANCH   1  19
DOCKED: TORSDOF 9DOCKED: TER
DOCKED: ENDMDL
________________________________________________________________________________


	BEGINNING GENETIC ALGORITHM DOCKING 31 of 100
Run: 31 Seed: 1128241060 551057948 [ Run 31 of 100 GA/GALS ]
Beginning LAMARCKIAN GENETIC ALGORITHM (LGA), with a maximum of 2500000 energy evaluations.

Final-Value: -16.253


	FINAL GENETIC ALGORITHM DOCKED STATE
	_______________________________________________


Detailed state:  trans 38.705 16.693 123.835 quatxyzw 0.204464 -0.330164 0.919759 -0.056830 center 1.619 0.086 0.013 ntor 9 -139.8930 79.0396 -14.6339 -50.1508 -68.1181 -114.2582 81.2143 128.3684 27.0068
State:	 38.705  16.693 123.835   0.205 -0.331  0.921 -173.484   -139.89   79.04  -14.63  -50.15  -68.12 -114.26   81.21  128.37   27.01

DOCKED: MODEL       31
DOCKED: USER    Run = 31
DOCKED: USER    DPF = ligand_dock.biased.dpf
DOCKED: USER  
DOCKED: USER    Estimated Free Energy of Binding    =  -11.81 kcal/mol  [=(1)+(2)+(3)-(4)]
DOCKED: USER    Estimated Inhibition Constant, Ki   =    2.20 nM (nanomolar)  [Temperature = 298.15 K]
DOCKED: USER    
DOCKED: USER    (1) Final Intermolecular Energy     =  -14.50 kcal/mol
DOCKED: USER        vdW + Hbond + desolv Energy     =  -14.50 kcal/mol
DOCKED: USER        Electrostatic Energy            =   +0.00 kcal/mol
DOCKED: USER    (2) Final Total Internal Energy     =   -1.76 kcal/mol
DOCKED: USER    (3) Torsional Free Energy           =   +2.68 kcal/mol
DOCKED: USER    (4) Unbound System's Energy  [=(2)] =   -1.76 kcal/mol
DOCKED: USER    
DOCKED: USER    
DOCKED: USER    NEWDPF move ligand.dum.pdbqt
DOCKED: USER    NEWDPF about 1.619000 0.086000 0.013000
DOCKED: USER    NEWDPF tran0 38.705321 16.693204 123.834663
DOCKED: USER    NEWDPF quaternion0 0.204464 -0.330164 0.919759 -0.056830
DOCKED: USER    NEWDPF axisangle0 0.204795 -0.330699 0.921248 -173.484291
DOCKED: USER    NEWDPF quat0 0.204795 -0.330699 0.921248 -173.484291
DOCKED: USER    NEWDPF dihe0 -139.89 79.04 -14.63 -50.15 -68.12 -114.26 81.21 128.37 27.01 
DOCKED: USER  keepresnum = 1 
DOCKED: USER  
DOCKED: REMARK  Name = 
DOCKED: REMARK  11 active torsions:
DOCKED: REMARK  status: ('A' for Active; 'I' for Inactive)
DOCKED: REMARK    1  A    between atoms: C_2  and  O_3
DOCKED: REMARK    2  A    between atoms: O_3  and  C_4
DOCKED: REMARK    3  A    between atoms: C_4  and  C_5
DOCKED: REMARK    4  A    between atoms: C_10  and  C_11
DOCKED: REMARK    5  A    between atoms: C_11  and  N_12
DOCKED: REMARK    6  A    between atoms: N_12  and  C_13
DOCKED: REMARK    7  A    between atoms: N_12  and  C_15
DOCKED: REMARK    8  A    between atoms: C_13  and  C_14
DOCKED: REMARK    9  A    between atoms: C_15  and  C_16
DOCKED: REMARK   10  A    between atoms: N_21  and  C_22
DOCKED: REMARK   11  A    between atoms: C_25  and  C_26
DOCKED: REMARK                            x       y       z     vdW  Elec       q    Type
DOCKED: REMARK                         _______ _______ _______ _____ _____    ______ ____
DOCKED: USER                              x       y       z     vdW  Elec       q    Type
DOCKED: USER                           _______ _______ _______ _____ _____    ______ ____
DOCKED: ROOT
DOCKED: ATOM      1  C   UNL     1      37.663  18.414 122.535 -0.12 -0.00    +0.000 C 
DOCKED: ENDROOT
DOCKED: BRANCH   1   2
DOCKED: ATOM      2  C   UNL     1      39.060  18.277 121.999 -0.07 -0.00    +0.000 A 
DOCKED: ATOM      3  C   UNL     1      39.305  18.346 120.620 -0.04 -0.00    +0.000 A 
DOCKED: ATOM      4  C   UNL     1      40.605  18.200 120.124 -0.04 -0.00    +0.000 A 
DOCKED: ATOM      5  C   UNL     1      41.673  17.968 121.002 -0.08 -0.00    +0.000 A 
DOCKED: ATOM      6  C   UNL     1      42.979  17.811 120.512 -0.08 -0.00    +0.000 A 
DOCKED: ATOM      7  C   UNL     1      44.041  17.544 121.392 -0.17 -0.00    +0.000 A 
DOCKED: ATOM      8  C   UNL     1      43.794  17.478 122.772 -0.27 -0.00    +0.000 A 
DOCKED: ATOM      9  C   UNL     1      42.497  17.642 123.269 -0.25 -0.00    +0.000 A 
DOCKED: ATOM     10  C   UNL     1      41.430  17.882 122.393 -0.16 -0.00    +0.000 A 
DOCKED: ATOM     11  C   UNL     1      40.124  18.039 122.882 -0.15 -0.00    +0.000 A 
DOCKED: ATOM     12  CM  UNL     1      40.366  18.119 121.503 +0.00 -0.00    +0.000 AC
DOCKED: ATOM     13  CM  UNL     1      42.736  17.721 121.890 +0.00 -0.00    +0.000 AC
DOCKED: BRANCH   7  12
DOCKED: ATOM     14  C   UNL     1      45.443  17.387 120.859 -0.16 -0.00    +0.000 C 
DOCKED: BRANCH  12  13
DOCKED: ATOM     15  N   UNL     1      45.977  16.041 121.160 -0.29 +0.00    +0.000 N 
DOCKED: ATOM     16  H   UNL     1      45.233  15.639 121.732 -0.01 +0.00    +0.000 HD
DOCKED: BRANCH  13  15
DOCKED: ATOM     17  C   UNL     1      46.067  15.146 119.986 -0.35 +0.00    +0.000 C 
DOCKED: ATOM     18  C   UNL     1      44.706  14.734 119.420 -0.41 -0.00    +0.000 C 
DOCKED: ENDBRANCH  13  15
DOCKED: BRANCH  13  17
DOCKED: ATOM     19  C   UNL     1      47.126  15.969 122.097 -0.28 +0.00    +0.000 C 
DOCKED: ATOM     20  C   UNL     1      47.075  16.971 123.259 -0.43 +0.00    +0.000 C 
DOCKED: ENDBRANCH  13  17
DOCKED: ENDBRANCH  12  13
DOCKED: ENDBRANCH   7  12
DOCKED: ENDBRANCH   1   2
DOCKED: BRANCH   1  19
DOCKED: ATOM     21  O   UNL     1      37.437  17.409 123.517 -0.24 -0.00    +0.000 OA
DOCKED: BRANCH  19  21
DOCKED: ATOM     22  O   UNL     1      38.808  15.561 123.356 -0.30 -0.00    +0.000 OA
DOCKED: ATOM     23  C   UNL     1      37.647  16.049 123.271 -0.32 -0.00    +0.000 C 
DOCKED: ATOM     24  N   UNL     1      36.536  15.233 122.876 -0.36 -0.00    +0.000 N 
DOCKED: ATOM     25  H   UNL     1      35.674  15.680 122.707 -0.01 -0.00    +0.000 HD
DOCKED: BRANCH  22  24
DOCKED: ATOM     26  C   UNL     1      36.596  13.807 122.712 -0.43 -0.00    +0.000 A 
DOCKED: ATOM     27  C   UNL     1      36.102  12.976 123.728 -0.54 -0.00    +0.000 A 
DOCKED: ATOM     28  C   UNL     1      36.171  11.586 123.607 -0.61 -0.00    +0.000 A 
DOCKED: ATOM     29  C   UNL     1      36.758  10.997 122.471 -0.57 -0.00    +0.000 A 
DOCKED: ATOM     30  C   UNL     1      37.258  11.832 121.456 -0.44 -0.00    +0.000 A 
DOCKED: ATOM     31  C   UNL     1      37.187  13.223 121.580 -0.42 -0.00    +0.000 A 
DOCKED: ATOM     32  CM  UNL     1      36.679  12.403 122.592 +0.00 -0.00    +0.000 AC
DOCKED: BRANCH  27  30
DOCKED: ATOM     33  C   UNL     1      36.843   9.522 122.325 -0.67 -0.00    +0.000 C 
DOCKED: ATOM     34  N   UNL     1      37.098   8.673 123.449 -0.64 -0.00    +0.000 N 
DOCKED: ATOM     35  O   UNL     1      37.068   7.328 123.306 -2.37 -0.00    +0.000 OA
DOCKED: ATOM     36  O   UNL     1      36.703   9.002 121.184 -2.62 -0.00    +0.000 OA
DOCKED: ATOM     37  H   UNL     1      37.296   9.069 124.328 -0.59 -0.00    +0.000 HD
DOCKED: ENDBRANCH  27  30
DOCKED: ENDBRANCH  22  24
DOCKED: ENDBRANCH  19  21
DOCKED: ENDBRANCH   1  19
DOCKED: TORSDOF 9DOCKED: TER
DOCKED: ENDMDL
________________________________________________________________________________


	BEGINNING GENETIC ALGORITHM DOCKING 32 of 100
Run: 32 Seed: 364599659 1985989706 [ Run 32 of 100 GA/GALS ]
Beginning LAMARCKIAN GENETIC ALGORITHM (LGA), with a maximum of 2500000 energy evaluations.

Final-Value: -16.967


	FINAL GENETIC ALGORITHM DOCKED STATE
	_______________________________________________


Detailed state:  trans 38.082 17.246 123.098 quatxyzw 0.228837 0.459247 -0.210879 -0.832019 center 1.619 0.086 0.013 ntor 9 37.1553 107.7494 178.6040 141.8331 123.9500 70.4323 -179.9765 -90.7578 -15.4392
State:	 38.082  17.246 123.098   0.413  0.828 -0.380 -67.387     37.16  107.75  178.60  141.83  123.95   70.43 -179.98  -90.76  -15.44

DOCKED: MODEL       32
DOCKED: USER    Run = 32
DOCKED: USER    DPF = ligand_dock.biased.dpf
DOCKED: USER  
DOCKED: USER    Estimated Free Energy of Binding    =  -12.47 kcal/mol  [=(1)+(2)+(3)-(4)]
DOCKED: USER    Estimated Inhibition Constant, Ki   =  720.66 pM (picomolar)  [Temperature = 298.15 K]
DOCKED: USER    
DOCKED: USER    (1) Final Intermolecular Energy     =  -15.16 kcal/mol
DOCKED: USER        vdW + Hbond + desolv Energy     =  -15.16 kcal/mol
DOCKED: USER        Electrostatic Energy            =   +0.00 kcal/mol
DOCKED: USER    (2) Final Total Internal Energy     =   -1.81 kcal/mol
DOCKED: USER    (3) Torsional Free Energy           =   +2.68 kcal/mol
DOCKED: USER    (4) Unbound System's Energy  [=(2)] =   -1.81 kcal/mol
DOCKED: USER    
DOCKED: USER    
DOCKED: USER    NEWDPF move ligand.dum.pdbqt
DOCKED: USER    NEWDPF about 1.619000 0.086000 0.013000
DOCKED: USER    NEWDPF tran0 38.082096 17.246115 123.098388
DOCKED: USER    NEWDPF quaternion0 0.228837 0.459247 -0.210879 -0.832019
DOCKED: USER    NEWDPF axisangle0 0.412506 0.827850 -0.380135 -67.386575
DOCKED: USER    NEWDPF quat0 0.412506 0.827850 -0.380135 -67.386575
DOCKED: USER    NEWDPF dihe0 37.16 107.75 178.60 141.83 123.95 70.43 -179.98 -90.76 -15.44 
DOCKED: USER  keepresnum = 1 
DOCKED: USER  
DOCKED: REMARK  Name = 
DOCKED: REMARK  11 active torsions:
DOCKED: REMARK  status: ('A' for Active; 'I' for Inactive)
DOCKED: REMARK    1  A    between atoms: C_2  and  O_3
DOCKED: REMARK    2  A    between atoms: O_3  and  C_4
DOCKED: REMARK    3  A    between atoms: C_4  and  C_5
DOCKED: REMARK    4  A    between atoms: C_10  and  C_11
DOCKED: REMARK    5  A    between atoms: C_11  and  N_12
DOCKED: REMARK    6  A    between atoms: N_12  and  C_13
DOCKED: REMARK    7  A    between atoms: N_12  and  C_15
DOCKED: REMARK    8  A    between atoms: C_13  and  C_14
DOCKED: REMARK    9  A    between atoms: C_15  and  C_16
DOCKED: REMARK   10  A    between atoms: N_21  and  C_22
DOCKED: REMARK   11  A    between atoms: C_25  and  C_26
DOCKED: REMARK                            x       y       z     vdW  Elec       q    Type
DOCKED: REMARK                         _______ _______ _______ _____ _____    ______ ____
DOCKED: USER                              x       y       z     vdW  Elec       q    Type
DOCKED: USER                           _______ _______ _______ _____ _____    ______ ____
DOCKED: ROOT
DOCKED: ATOM      1  C   UNL     1      36.508  18.281 121.619 -0.18 -0.00    +0.000 C 
DOCKED: ENDROOT
DOCKED: BRANCH   1   2
DOCKED: ATOM      2  C   UNL     1      35.951  18.452 123.003 -0.21 -0.00    +0.000 A 
DOCKED: ATOM      3  C   UNL     1      36.144  19.650 123.707 -0.17 -0.00    +0.000 A 
DOCKED: ATOM      4  C   UNL     1      35.639  19.799 125.003 -0.17 -0.00    +0.000 A 
DOCKED: ATOM      5  C   UNL     1      34.947  18.745 125.616 -0.23 -0.00    +0.000 A 
DOCKED: ATOM      6  C   UNL     1      34.445  18.882 126.919 -0.19 -0.00    +0.000 A 
DOCKED: ATOM      7  C   UNL     1      33.782  17.812 127.542 -0.26 -0.00    +0.000 A 
DOCKED: ATOM      8  C   UNL     1      33.587  16.615 126.835 -0.37 -0.00    +0.000 A 
DOCKED: ATOM      9  C   UNL     1      34.077  16.473 125.533 -0.41 -0.00    +0.000 A 
DOCKED: ATOM     10  C   UNL     1      34.762  17.529 124.916 -0.35 -0.00    +0.000 A 
DOCKED: ATOM     11  C   UNL     1      35.264  17.391 123.613 -0.32 -0.00    +0.000 A 
DOCKED: ATOM     12  CM  UNL     1      35.451  18.595 124.309 -0.17 -0.00    +0.000 AC
DOCKED: ATOM     13  CM  UNL     1      34.267  17.675 126.227 -0.14 -0.00    +0.000 AC
DOCKED: BRANCH   7  12
DOCKED: ATOM     14  C   UNL     1      33.236  17.971 128.939 -0.21 -0.00    +0.000 C 
DOCKED: BRANCH  12  13
DOCKED: ATOM     15  N   UNL     1      32.032  18.830 128.942 -0.16 -0.00    +0.000 N 
DOCKED: ATOM     16  H   UNL     1      31.852  18.943 129.940 +0.01 -0.00    +0.000 HD
DOCKED: BRANCH  13  15
DOCKED: ATOM     17  C   UNL     1      32.263  20.204 128.448 -0.12 -0.00    +0.000 C 
DOCKED: ATOM     18  C   UNL     1      31.627  20.483 127.084 -0.26 -0.00    +0.000 C 
DOCKED: ENDBRANCH  13  15
DOCKED: BRANCH  13  17
DOCKED: ATOM     19  C   UNL     1      30.760  18.204 128.495 -0.37 -0.00    +0.000 C 
DOCKED: ATOM     20  C   UNL     1      30.230  17.094 129.413 -0.32 -0.00    +0.000 C 
DOCKED: ENDBRANCH  13  17
DOCKED: ENDBRANCH  12  13
DOCKED: ENDBRANCH   7  12
DOCKED: ENDBRANCH   1   2
DOCKED: BRANCH   1  19
DOCKED: ATOM     21  O   UNL     1      37.798  17.686 121.702 -0.11 -0.00    +0.000 OA
DOCKED: BRANCH  19  21
DOCKED: ATOM     22  O   UNL     1      39.159  15.827 121.834 -0.26 -0.00    +0.000 OA
DOCKED: ATOM     23  C   UNL     1      37.993  16.302 121.740 -0.21 -0.00    +0.000 C 
DOCKED: ATOM     24  N   UNL     1      36.856  15.435 121.624 -0.24 -0.00    +0.000 N 
DOCKED: ATOM     25  H   UNL     1      35.982  15.847 121.434 -0.01 -0.00    +0.000 HD
DOCKED: BRANCH  22  24
DOCKED: ATOM     26  C   UNL     1      36.908  14.006 121.769 -0.28 -0.00    +0.000 A 
DOCKED: ATOM     27  C   UNL     1      37.452  13.230 120.736 -0.42 -0.00    +0.000 A 
DOCKED: ATOM     28  C   UNL     1      37.491  11.837 120.838 -0.43 -0.00    +0.000 A 
DOCKED: ATOM     29  C   UNL     1      36.963  11.189 121.971 -0.49 -0.00    +0.000 A 
DOCKED: ATOM     30  C   UNL     1      36.411  11.970 123.002 -0.60 -0.00    +0.000 A 
DOCKED: ATOM     31  C   UNL     1      36.374  13.363 122.898 -0.47 -0.00    +0.000 A 
DOCKED: ATOM     32  CM  UNL     1      36.933  12.599 121.870 +0.00 -0.00    +0.000 AC
DOCKED: BRANCH  27  30
DOCKED: ATOM     33  C   UNL     1      36.993   9.710 122.097 -0.61 -0.00    +0.000 C 
DOCKED: ATOM     34  N   UNL     1      36.942   9.068 123.376 -0.59 -0.00    +0.000 N 
DOCKED: ATOM     35  O   UNL     1      36.866   7.721 123.458 -2.58 -0.00    +0.000 OA
DOCKED: ATOM     36  O   UNL     1      37.078   8.999 121.058 -2.70 -0.00    +0.000 OA
DOCKED: ATOM     37  H   UNL     1      36.963   9.610 124.198 -0.55 -0.00    +0.000 HD
DOCKED: ENDBRANCH  27  30
DOCKED: ENDBRANCH  22  24
DOCKED: ENDBRANCH  19  21
DOCKED: ENDBRANCH   1  19
DOCKED: TORSDOF 9DOCKED: TER
DOCKED: ENDMDL
________________________________________________________________________________


	BEGINNING GENETIC ALGORITHM DOCKING 33 of 100
Run: 33 Seed: 103747175 157691934 [ Run 33 of 100 GA/GALS ]
Beginning LAMARCKIAN GENETIC ALGORITHM (LGA), with a maximum of 2500000 energy evaluations.

Final-Value: -17.172


	FINAL GENETIC ALGORITHM DOCKED STATE
	_______________________________________________


Detailed state:  trans 37.481 16.940 121.976 quatxyzw -0.955504 0.036878 0.206502 0.207388 center 1.619 0.086 0.013 ntor 9 179.8015 -123.7829 180.0000 -147.8421 146.9324 29.6720 -67.0390 102.2093 -107.3646
State:	 37.481  16.940 121.976  -0.977  0.038  0.211 156.061    179.80 -123.78  180.00 -147.84  146.93   29.67  -67.04  102.21 -107.36

DOCKED: MODEL       33
DOCKED: USER    Run = 33
DOCKED: USER    DPF = ligand_dock.biased.dpf
DOCKED: USER  
DOCKED: USER    Estimated Free Energy of Binding    =  -12.91 kcal/mol  [=(1)+(2)+(3)-(4)]
DOCKED: USER    Estimated Inhibition Constant, Ki   =  344.09 pM (picomolar)  [Temperature = 298.15 K]
DOCKED: USER    
DOCKED: USER    (1) Final Intermolecular Energy     =  -15.59 kcal/mol
DOCKED: USER        vdW + Hbond + desolv Energy     =  -15.59 kcal/mol
DOCKED: USER        Electrostatic Energy            =   +0.00 kcal/mol
DOCKED: USER    (2) Final Total Internal Energy     =   -1.58 kcal/mol
DOCKED: USER    (3) Torsional Free Energy           =   +2.68 kcal/mol
DOCKED: USER    (4) Unbound System's Energy  [=(2)] =   -1.58 kcal/mol
DOCKED: USER    
DOCKED: USER    
DOCKED: USER    NEWDPF move ligand.dum.pdbqt
DOCKED: USER    NEWDPF about 1.619000 0.086000 0.013000
DOCKED: USER    NEWDPF tran0 37.480911 16.939688 121.975643
DOCKED: USER    NEWDPF quaternion0 -0.955504 0.036878 0.206502 0.207388
DOCKED: USER    NEWDPF axisangle0 -0.976739 0.037698 0.211091 156.061380
DOCKED: USER    NEWDPF quat0 -0.976739 0.037698 0.211091 156.061380
DOCKED: USER    NEWDPF dihe0 179.80 -123.78 180.00 -147.84 146.93 29.67 -67.04 102.21 -107.36 
DOCKED: USER  keepresnum = 1 
DOCKED: USER  
DOCKED: REMARK  Name = 
DOCKED: REMARK  11 active torsions:
DOCKED: REMARK  status: ('A' for Active; 'I' for Inactive)
DOCKED: REMARK    1  A    between atoms: C_2  and  O_3
DOCKED: REMARK    2  A    between atoms: O_3  and  C_4
DOCKED: REMARK    3  A    between atoms: C_4  and  C_5
DOCKED: REMARK    4  A    between atoms: C_10  and  C_11
DOCKED: REMARK    5  A    between atoms: C_11  and  N_12
DOCKED: REMARK    6  A    between atoms: N_12  and  C_13
DOCKED: REMARK    7  A    between atoms: N_12  and  C_15
DOCKED: REMARK    8  A    between atoms: C_13  and  C_14
DOCKED: REMARK    9  A    between atoms: C_15  and  C_16
DOCKED: REMARK   10  A    between atoms: N_21  and  C_22
DOCKED: REMARK   11  A    between atoms: C_25  and  C_26
DOCKED: REMARK                            x       y       z     vdW  Elec       q    Type
DOCKED: REMARK                         _______ _______ _______ _____ _____    ______ ____
DOCKED: USER                              x       y       z     vdW  Elec       q    Type
DOCKED: USER                           _______ _______ _______ _____ _____    ______ ____
DOCKED: ROOT
DOCKED: ATOM      1  C   UNL     1      38.764  18.075 123.650 -0.19 -0.00    +0.000 C 
DOCKED: ENDROOT
DOCKED: BRANCH   1   2
DOCKED: ATOM      2  C   UNL     1      37.333  18.159 124.096 -0.18 -0.00    +0.000 A 
DOCKED: ATOM      3  C   UNL     1      36.324  17.486 123.391 -0.23 -0.00    +0.000 A 
DOCKED: ATOM      4  C   UNL     1      34.990  17.582 123.800 -0.33 -0.00    +0.000 A 
DOCKED: ATOM      5  C   UNL     1      34.647  18.365 124.911 -0.30 -0.00    +0.000 A 
DOCKED: ATOM      6  C   UNL     1      33.309  18.475 125.322 -0.23 -0.00    +0.000 A 
DOCKED: ATOM      7  C   UNL     1      32.965  19.288 126.414 -0.25 -0.00    +0.000 A 
DOCKED: ATOM      8  C   UNL     1      33.977  19.959 127.121 -0.14 -0.00    +0.000 A 
DOCKED: ATOM      9  C   UNL     1      35.313  19.849 126.722 -0.12 -0.00    +0.000 A 
DOCKED: ATOM     10  C   UNL     1      35.657  19.059 125.617 -0.18 -0.00    +0.000 A 
DOCKED: ATOM     11  C   UNL     1      36.994  18.950 125.205 -0.15 -0.00    +0.000 A 
DOCKED: ATOM     12  CM  UNL     1      35.991  18.266 124.503 -0.15 -0.00    +0.000 AC
DOCKED: ATOM     13  CM  UNL     1      34.311  19.166 126.018 -0.05 -0.00    +0.000 AC
DOCKED: BRANCH   7  12
DOCKED: ATOM     14  C   UNL     1      31.528  19.392 126.857 -0.21 -0.00    +0.000 C 
DOCKED: BRANCH  12  13
DOCKED: ATOM     15  N   UNL     1      31.246  18.455 127.967 -0.28 -0.00    +0.000 N 
DOCKED: ATOM     16  H   UNL     1      30.750  17.701 127.490 -0.55 -0.00    +0.000 HD
DOCKED: BRANCH  13  15
DOCKED: ATOM     17  C   UNL     1      32.447  17.806 128.536 -0.29 -0.00    +0.000 C 
DOCKED: ATOM     18  C   UNL     1      32.573  16.323 128.180 -0.44 -0.00    +0.000 C 
DOCKED: ENDBRANCH  13  15
DOCKED: BRANCH  13  17
DOCKED: ATOM     19  C   UNL     1      30.228  18.880 128.962 -0.34 -0.00    +0.000 C 
DOCKED: ATOM     20  C   UNL     1      30.218  18.066 130.263 -0.32 -0.00    +0.000 C 
DOCKED: ENDBRANCH  13  17
DOCKED: ENDBRANCH  12  13
DOCKED: ENDBRANCH   7  12
DOCKED: ENDBRANCH   1   2
DOCKED: BRANCH   1  19
DOCKED: ATOM     21  O   UNL     1      38.845  17.264 122.483 -0.17 -0.00    +0.000 OA
DOCKED: BRANCH  19  21
DOCKED: ATOM     22  O   UNL     1      39.791  15.242 123.064 -0.41 -0.00    +0.000 OA
DOCKED: ATOM     23  C   UNL     1      38.834  15.867 122.530 -0.31 -0.00    +0.000 C 
DOCKED: ATOM     24  N   UNL     1      37.745  15.159 121.921 -0.28 -0.00    +0.000 N 
DOCKED: ATOM     25  H   UNL     1      37.083  15.681 121.412 -0.00 -0.00    +0.000 HD
DOCKED: BRANCH  22  24
DOCKED: ATOM     26  C   UNL     1      37.556  13.736 122.004 -0.42 -0.00    +0.000 A 
DOCKED: ATOM     27  C   UNL     1      37.631  12.962 120.837 -0.44 -0.00    +0.000 A 
DOCKED: ATOM     28  C   UNL     1      37.424  11.581 120.885 -0.41 -0.00    +0.000 A 
DOCKED: ATOM     29  C   UNL     1      37.116  10.948 122.103 -0.40 -0.00    +0.000 A 
DOCKED: ATOM     30  C   UNL     1      37.034  11.727 123.271 -0.59 -0.00    +0.000 A 
DOCKED: ATOM     31  C   UNL     1      37.242  13.108 123.221 -0.52 -0.00    +0.000 A 
DOCKED: ATOM     32  CM  UNL     1      37.333  12.344 122.054 +0.00 -0.00    +0.000 AC
DOCKED: BRANCH  27  30
DOCKED: ATOM     33  C   UNL     1      36.890   9.482 122.174 -0.66 -0.00    +0.000 C 
DOCKED: ATOM     34  N   UNL     1      37.044   8.761 123.402 -0.64 -0.00    +0.000 N 
DOCKED: ATOM     35  O   UNL     1      36.733   7.446 123.462 -2.32 -0.00    +0.000 OA
DOCKED: ATOM     36  O   UNL     1      36.570   8.851 121.130 -2.47 -0.00    +0.000 OA
DOCKED: ATOM     37  H   UNL     1      37.377   9.224 124.204 -0.63 -0.00    +0.000 HD
DOCKED: ENDBRANCH  27  30
DOCKED: ENDBRANCH  22  24
DOCKED: ENDBRANCH  19  21
DOCKED: ENDBRANCH   1  19
DOCKED: TORSDOF 9DOCKED: TER
DOCKED: ENDMDL
________________________________________________________________________________


	BEGINNING GENETIC ALGORITHM DOCKING 34 of 100
Run: 34 Seed: 1768782596 552288285 [ Run 34 of 100 GA/GALS ]
Beginning LAMARCKIAN GENETIC ALGORITHM (LGA), with a maximum of 2500000 energy evaluations.

Final-Value: -17.711


	FINAL GENETIC ALGORITHM DOCKED STATE
	_______________________________________________


Detailed state:  trans 36.946 16.326 122.546 quatxyzw -0.514573 -0.466800 0.178277 0.696800 center 1.619 0.086 0.013 ntor 9 -177.9564 179.8863 178.1935 -60.1863 -73.4089 176.5780 81.1934 -120.3257 -169.4712
State:	 36.946  16.326 122.546  -0.717 -0.651  0.249 91.658   -177.96  179.89  178.19  -60.19  -73.41  176.58   81.19 -120.33 -169.47

DOCKED: MODEL       34
DOCKED: USER    Run = 34
DOCKED: USER    DPF = ligand_dock.biased.dpf
DOCKED: USER  
DOCKED: USER    Estimated Free Energy of Binding    =  -13.46 kcal/mol  [=(1)+(2)+(3)-(4)]
DOCKED: USER    Estimated Inhibition Constant, Ki   =  135.66 pM (picomolar)  [Temperature = 298.15 K]
DOCKED: USER    
DOCKED: USER    (1) Final Intermolecular Energy     =  -16.15 kcal/mol
DOCKED: USER        vdW + Hbond + desolv Energy     =  -16.15 kcal/mol
DOCKED: USER        Electrostatic Energy            =   +0.00 kcal/mol
DOCKED: USER    (2) Final Total Internal Energy     =   -1.56 kcal/mol
DOCKED: USER    (3) Torsional Free Energy           =   +2.68 kcal/mol
DOCKED: USER    (4) Unbound System's Energy  [=(2)] =   -1.56 kcal/mol
DOCKED: USER    
DOCKED: USER    
DOCKED: USER    NEWDPF move ligand.dum.pdbqt
DOCKED: USER    NEWDPF about 1.619000 0.086000 0.013000
DOCKED: USER    NEWDPF tran0 36.946178 16.326484 122.546308
DOCKED: USER    NEWDPF quaternion0 -0.514573 -0.466800 0.178277 0.696800
DOCKED: USER    NEWDPF axisangle0 -0.717409 -0.650805 0.248551 91.658419
DOCKED: USER    NEWDPF quat0 -0.717409 -0.650805 0.248551 91.658419
DOCKED: USER    NEWDPF dihe0 -177.96 179.89 178.19 -60.19 -73.41 176.58 81.19 -120.33 -169.47 
DOCKED: USER  keepresnum = 1 
DOCKED: USER  
DOCKED: REMARK  Name = 
DOCKED: REMARK  11 active torsions:
DOCKED: REMARK  status: ('A' for Active; 'I' for Inactive)
DOCKED: REMARK    1  A    between atoms: C_2  and  O_3
DOCKED: REMARK    2  A    between atoms: O_3  and  C_4
DOCKED: REMARK    3  A    between atoms: C_4  and  C_5
DOCKED: REMARK    4  A    between atoms: C_10  and  C_11
DOCKED: REMARK    5  A    between atoms: C_11  and  N_12
DOCKED: REMARK    6  A    between atoms: N_12  and  C_13
DOCKED: REMARK    7  A    between atoms: N_12  and  C_15
DOCKED: REMARK    8  A    between atoms: C_13  and  C_14
DOCKED: REMARK    9  A    between atoms: C_15  and  C_16
DOCKED: REMARK   10  A    between atoms: N_21  and  C_22
DOCKED: REMARK   11  A    between atoms: C_25  and  C_26
DOCKED: REMARK                            x       y       z     vdW  Elec       q    Type
DOCKED: REMARK                         _______ _______ _______ _____ _____    ______ ____
DOCKED: USER                              x       y       z     vdW  Elec       q    Type
DOCKED: USER                           _______ _______ _______ _____ _____    ______ ____
DOCKED: ROOT
DOCKED: ATOM      1  C   UNL     1      35.792  18.350 121.987 -0.25 -0.00    +0.000 C 
DOCKED: ENDROOT
DOCKED: BRANCH   1   2
DOCKED: ATOM      2  C   UNL     1      35.195  17.876 123.281 -0.29 -0.00    +0.000 A 
DOCKED: ATOM      3  C   UNL     1      34.637  16.593 123.383 -0.41 -0.00    +0.000 A 
DOCKED: ATOM      4  C   UNL     1      34.067  16.162 124.585 -0.46 -0.00    +0.000 A 
DOCKED: ATOM      5  C   UNL     1      34.035  17.016 125.697 -0.39 -0.00    +0.000 A 
DOCKED: ATOM      6  C   UNL     1      33.456  16.596 126.904 -0.37 -0.00    +0.000 A 
DOCKED: ATOM      7  C   UNL     1      33.395  17.466 128.005 -0.29 -0.00    +0.000 A 
DOCKED: ATOM      8  C   UNL     1      33.957  18.749 127.902 -0.15 -0.00    +0.000 A 
DOCKED: ATOM      9  C   UNL     1      34.543  19.173 126.705 -0.18 -0.00    +0.000 A 
DOCKED: ATOM     10  C   UNL     1      34.583  18.317 125.596 -0.29 -0.00    +0.000 A 
DOCKED: ATOM     11  C   UNL     1      35.161  18.737 124.389 -0.24 -0.00    +0.000 A 
DOCKED: ATOM     12  CM  UNL     1      34.613  17.450 124.488 -0.35 -0.00    +0.000 AC
DOCKED: ATOM     13  CM  UNL     1      33.995  17.886 126.802 -0.03 -0.00    +0.000 AC
DOCKED: BRANCH   7  12
DOCKED: ATOM     14  C   UNL     1      32.782  17.004 129.302 -0.33 -0.00    +0.000 C 
DOCKED: BRANCH  12  13
DOCKED: ATOM     15  N   UNL     1      31.692  17.910 129.726 -0.25 -0.00    +0.000 N 
DOCKED: ATOM     16  H   UNL     1      31.852  18.728 129.137 +0.01 -0.00    +0.000 HD
DOCKED: BRANCH  13  15
DOCKED: ATOM     17  C   UNL     1      30.337  17.447 129.357 -0.45 -0.00    +0.000 C 
DOCKED: ATOM     18  C   UNL     1      29.716  18.224 128.194 -0.41 -0.00    +0.000 C 
DOCKED: ENDBRANCH  13  15
DOCKED: BRANCH  13  17
DOCKED: ATOM     19  C   UNL     1      31.807  18.509 131.080 -0.15 -0.00    +0.000 C 
DOCKED: ATOM     20  C   UNL     1      31.416  19.992 131.165 -0.12 -0.00    +0.000 C 
DOCKED: ENDBRANCH  13  17
DOCKED: ENDBRANCH  12  13
DOCKED: ENDBRANCH   7  12
DOCKED: ENDBRANCH   1   2
DOCKED: BRANCH   1  19
DOCKED: ATOM     21  O   UNL     1      36.884  17.506 121.637 -0.16 -0.00    +0.000 OA
DOCKED: BRANCH  19  21
DOCKED: ATOM     22  O   UNL     1      36.324  15.657 120.378 -0.20 -0.00    +0.000 OA
DOCKED: ATOM     23  C   UNL     1      36.750  16.125 121.469 -0.23 -0.00    +0.000 C 
DOCKED: ATOM     24  N   UNL     1      37.059  15.257 122.568 -0.33 -0.00    +0.000 N 
DOCKED: ATOM     25  H   UNL     1      37.274  15.672 123.436 -0.02 -0.00    +0.000 HD
DOCKED: BRANCH  22  24
DOCKED: ATOM     26  C   UNL     1      37.078  13.822 122.488 -0.44 -0.00    +0.000 A 
DOCKED: ATOM     27  C   UNL     1      37.443  13.205 121.282 -0.42 -0.00    +0.000 A 
DOCKED: ATOM     28  C   UNL     1      37.445  11.813 121.168 -0.41 -0.00    +0.000 A 
DOCKED: ATOM     29  C   UNL     1      37.059  11.007 122.255 -0.48 -0.00    +0.000 A 
DOCKED: ATOM     30  C   UNL     1      36.687  11.628 123.461 -0.62 -0.00    +0.000 A 
DOCKED: ATOM     31  C   UNL     1      36.686  13.021 123.573 -0.54 -0.00    +0.000 A 
DOCKED: ATOM     32  CM  UNL     1      37.066  12.416 122.371 +0.00 -0.00    +0.000 AC
DOCKED: BRANCH  27  30
DOCKED: ATOM     33  C   UNL     1      37.052   9.526 122.152 -0.61 -0.00    +0.000 C 
DOCKED: ATOM     34  N   UNL     1      37.167   8.696 123.314 -0.64 -0.00    +0.000 N 
DOCKED: ATOM     35  O   UNL     1      37.054   7.353 123.204 -2.36 -0.00    +0.000 OA
DOCKED: ATOM     36  O   UNL     1      36.956   8.982 121.018 -2.68 -0.00    +0.000 OA
DOCKED: ATOM     37  H   UNL     1      37.329   9.105 124.194 -0.61 -0.00    +0.000 HD
DOCKED: ENDBRANCH  27  30
DOCKED: ENDBRANCH  22  24
DOCKED: ENDBRANCH  19  21
DOCKED: ENDBRANCH   1  19
DOCKED: TORSDOF 9DOCKED: TER
DOCKED: ENDMDL
________________________________________________________________________________


	BEGINNING GENETIC ALGORITHM DOCKING 35 of 100
Run: 35 Seed: 140406296 769738921 [ Run 35 of 100 GA/GALS ]
Beginning LAMARCKIAN GENETIC ALGORITHM (LGA), with a maximum of 2500000 energy evaluations.

Final-Value: -18.566


	FINAL GENETIC ALGORITHM DOCKED STATE
	_______________________________________________


Detailed state:  trans 37.753 16.779 124.399 quatxyzw -0.335693 -0.296730 0.148322 0.881624 center 1.619 0.086 0.013 ntor 9 -142.4382 32.8446 -180.0000 -37.3287 20.0824 53.4725 160.9187 -87.8737 179.6899
State:	 37.753  16.779 124.399  -0.711 -0.629  0.314 56.322   -142.44   32.84 -180.00  -37.33   20.08   53.47  160.92  -87.87  179.69

DOCKED: MODEL       35
DOCKED: USER    Run = 35
DOCKED: USER    DPF = ligand_dock.biased.dpf
DOCKED: USER  
DOCKED: USER    Estimated Free Energy of Binding    =  -14.22 kcal/mol  [=(1)+(2)+(3)-(4)]
DOCKED: USER    Estimated Inhibition Constant, Ki   =   37.61 pM (picomolar)  [Temperature = 298.15 K]
DOCKED: USER    
DOCKED: USER    (1) Final Intermolecular Energy     =  -16.91 kcal/mol
DOCKED: USER        vdW + Hbond + desolv Energy     =  -16.91 kcal/mol
DOCKED: USER        Electrostatic Energy            =   +0.00 kcal/mol
DOCKED: USER    (2) Final Total Internal Energy     =   -1.66 kcal/mol
DOCKED: USER    (3) Torsional Free Energy           =   +2.68 kcal/mol
DOCKED: USER    (4) Unbound System's Energy  [=(2)] =   -1.66 kcal/mol
DOCKED: USER    
DOCKED: USER    
DOCKED: USER    NEWDPF move ligand.dum.pdbqt
DOCKED: USER    NEWDPF about 1.619000 0.086000 0.013000
DOCKED: USER    NEWDPF tran0 37.753192 16.778647 124.398690
DOCKED: USER    NEWDPF quaternion0 -0.335693 -0.296730 0.148322 0.881624
DOCKED: USER    NEWDPF axisangle0 -0.711288 -0.628730 0.314274 56.322119
DOCKED: USER    NEWDPF quat0 -0.711288 -0.628730 0.314274 56.322119
DOCKED: USER    NEWDPF dihe0 -142.44 32.84 -180.00 -37.33 20.08 53.47 160.92 -87.87 179.69 
DOCKED: USER  keepresnum = 1 
DOCKED: USER  
DOCKED: REMARK  Name = 
DOCKED: REMARK  11 active torsions:
DOCKED: REMARK  status: ('A' for Active; 'I' for Inactive)
DOCKED: REMARK    1  A    between atoms: C_2  and  O_3
DOCKED: REMARK    2  A    between atoms: O_3  and  C_4
DOCKED: REMARK    3  A    between atoms: C_4  and  C_5
DOCKED: REMARK    4  A    between atoms: C_10  and  C_11
DOCKED: REMARK    5  A    between atoms: C_11  and  N_12
DOCKED: REMARK    6  A    between atoms: N_12  and  C_13
DOCKED: REMARK    7  A    between atoms: N_12  and  C_15
DOCKED: REMARK    8  A    between atoms: C_13  and  C_14
DOCKED: REMARK    9  A    between atoms: C_15  and  C_16
DOCKED: REMARK   10  A    between atoms: N_21  and  C_22
DOCKED: REMARK   11  A    between atoms: C_25  and  C_26
DOCKED: REMARK                            x       y       z     vdW  Elec       q    Type
DOCKED: REMARK                         _______ _______ _______ _____ _____    ______ ____
DOCKED: USER                              x       y       z     vdW  Elec       q    Type
DOCKED: USER                           _______ _______ _______ _____ _____    ______ ____
DOCKED: ROOT
DOCKED: ATOM      1  C   UNL     1      36.888  18.113 122.607 -0.17 -0.00    +0.000 C 
DOCKED: ENDROOT
DOCKED: BRANCH   1   2
DOCKED: ATOM      2  C   UNL     1      35.845  18.142 123.688 -0.23 -0.00    +0.000 A 
DOCKED: ATOM      3  C   UNL     1      35.136  16.981 124.027 -0.37 -0.00    +0.000 A 
DOCKED: ATOM      4  C   UNL     1      34.153  17.017 125.021 -0.40 -0.00    +0.000 A 
DOCKED: ATOM      5  C   UNL     1      33.858  18.219 125.679 -0.32 -0.00    +0.000 A 
DOCKED: ATOM      6  C   UNL     1      32.866  18.267 126.671 -0.18 -0.00    +0.000 A 
DOCKED: ATOM      7  C   UNL     1      32.549  19.481 127.302 -0.20 -0.00    +0.000 A 
DOCKED: ATOM      8  C   UNL     1      33.262  20.641 126.964 -0.15 -0.00    +0.000 A 
DOCKED: ATOM      9  C   UNL     1      34.257  20.602 125.982 -0.15 -0.00    +0.000 A 
DOCKED: ATOM     10  C   UNL     1      34.559  19.398 125.330 -0.21 -0.00    +0.000 A 
DOCKED: ATOM     11  C   UNL     1      35.550  19.351 124.338 -0.19 -0.00    +0.000 A 
DOCKED: ATOM     12  CM  UNL     1      34.850  18.184 124.680 -0.39 -0.00    +0.000 AC
DOCKED: ATOM     13  CM  UNL     1      33.558  19.435 126.321 -0.00 -0.00    +0.000 AC
DOCKED: BRANCH   7  12
DOCKED: ATOM     14  C   UNL     1      31.491  19.521 128.375 -0.20 -0.00    +0.000 C 
DOCKED: BRANCH  12  13
DOCKED: ATOM     15  N   UNL     1      30.451  18.497 128.133 -0.35 -0.00    +0.000 N 
DOCKED: ATOM     16  H   UNL     1      30.848  17.968 127.356 -0.52 -0.00    +0.000 HD
DOCKED: BRANCH  13  15
DOCKED: ATOM     17  C   UNL     1      30.308  17.506 129.221 -0.46 -0.00    +0.000 C 
DOCKED: ATOM     18  C   UNL     1      31.488  16.538 129.332 -0.41 -0.00    +0.000 C 
DOCKED: ENDBRANCH  13  15
DOCKED: BRANCH  13  17
DOCKED: ATOM     19  C   UNL     1      29.175  18.966 127.534 -0.52 -0.00    +0.000 C 
DOCKED: ATOM     20  C   UNL     1      29.029  20.491 127.439 -0.46 -0.00    +0.000 C 
DOCKED: ENDBRANCH  13  17
DOCKED: ENDBRANCH  12  13
DOCKED: ENDBRANCH   7  12
DOCKED: ENDBRANCH   1   2
DOCKED: BRANCH   1  19
DOCKED: ATOM     21  O   UNL     1      38.036  17.418 123.082 -0.20 -0.00    +0.000 OA
DOCKED: BRANCH  19  21
DOCKED: ATOM     22  O   UNL     1      39.347  15.520 123.047 -0.37 -0.00    +0.000 OA
DOCKED: ATOM     23  C   UNL     1      38.202  16.038 122.930 -0.31 -0.00    +0.000 C 
DOCKED: ATOM     24  N   UNL     1      37.064  15.233 122.594 -0.33 -0.00    +0.000 N 
DOCKED: ATOM     25  H   UNL     1      36.216  15.694 122.396 -0.01 -0.00    +0.000 HD
DOCKED: BRANCH  22  24
DOCKED: ATOM     26  C   UNL     1      37.077  13.797 122.529 -0.44 -0.00    +0.000 A 
DOCKED: ATOM     27  C   UNL     1      37.359  13.167 121.308 -0.42 -0.00    +0.000 A 
DOCKED: ATOM     28  C   UNL     1      37.353  11.773 121.210 -0.42 -0.00    +0.000 A 
DOCKED: ATOM     29  C   UNL     1      37.042  10.980 122.329 -0.49 -0.00    +0.000 A 
DOCKED: ATOM     30  C   UNL     1      36.753  11.614 123.551 -0.61 -0.00    +0.000 A 
DOCKED: ATOM     31  C   UNL     1      36.760  13.009 123.647 -0.51 -0.00    +0.000 A 
DOCKED: ATOM     32  CM  UNL     1      37.057  12.390 122.429 +0.00 -0.00    +0.000 AC
DOCKED: BRANCH  27  30
DOCKED: ATOM     33  C   UNL     1      37.028   9.497 122.244 -0.62 -0.00    +0.000 C 
DOCKED: ATOM     34  N   UNL     1      37.184   8.681 123.410 -0.62 -0.00    +0.000 N 
DOCKED: ATOM     35  O   UNL     1      37.064   7.336 123.320 -2.38 -0.00    +0.000 OA
DOCKED: ATOM     36  O   UNL     1      36.889   8.941 121.121 -2.66 -0.00    +0.000 OA
DOCKED: ATOM     37  H   UNL     1      37.379   9.099 124.279 -0.61 -0.00    +0.000 HD
DOCKED: ENDBRANCH  27  30
DOCKED: ENDBRANCH  22  24
DOCKED: ENDBRANCH  19  21
DOCKED: ENDBRANCH   1  19
DOCKED: TORSDOF 9DOCKED: TER
DOCKED: ENDMDL
________________________________________________________________________________


	BEGINNING GENETIC ALGORITHM DOCKING 36 of 100
Run: 36 Seed: 2078164209 550905858 [ Run 36 of 100 GA/GALS ]
Beginning LAMARCKIAN GENETIC ALGORITHM (LGA), with a maximum of 2500000 energy evaluations.

Final-Value: -18.109


	FINAL GENETIC ALGORITHM DOCKED STATE
	_______________________________________________


Detailed state:  trans 37.170 16.885 122.683 quatxyzw -0.293665 -0.544136 0.267879 0.738862 center 1.619 0.086 0.013 ntor 9 -121.2632 157.7250 171.6982 11.8830 -170.2175 167.1042 93.8353 -91.5836 -15.1775
State:	 37.170  16.885 122.683  -0.436 -0.807  0.398 84.731   -121.26  157.72  171.70   11.88 -170.22  167.10   93.84  -91.58  -15.18

DOCKED: MODEL       36
DOCKED: USER    Run = 36
DOCKED: USER    DPF = ligand_dock.biased.dpf
DOCKED: USER  
DOCKED: USER    Estimated Free Energy of Binding    =  -13.70 kcal/mol  [=(1)+(2)+(3)-(4)]
DOCKED: USER    Estimated Inhibition Constant, Ki   =   90.55 pM (picomolar)  [Temperature = 298.15 K]
DOCKED: USER    
DOCKED: USER    (1) Final Intermolecular Energy     =  -16.39 kcal/mol
DOCKED: USER        vdW + Hbond + desolv Energy     =  -16.39 kcal/mol
DOCKED: USER        Electrostatic Energy            =   +0.00 kcal/mol
DOCKED: USER    (2) Final Total Internal Energy     =   -1.72 kcal/mol
DOCKED: USER    (3) Torsional Free Energy           =   +2.68 kcal/mol
DOCKED: USER    (4) Unbound System's Energy  [=(2)] =   -1.72 kcal/mol
DOCKED: USER    
DOCKED: USER    
DOCKED: USER    NEWDPF move ligand.dum.pdbqt
DOCKED: USER    NEWDPF about 1.619000 0.086000 0.013000
DOCKED: USER    NEWDPF tran0 37.169612 16.884785 122.683214
DOCKED: USER    NEWDPF quaternion0 -0.293665 -0.544136 0.267879 0.738862
DOCKED: USER    NEWDPF axisangle0 -0.435797 -0.807496 0.397531 84.730839
DOCKED: USER    NEWDPF quat0 -0.435797 -0.807496 0.397531 84.730839
DOCKED: USER    NEWDPF dihe0 -121.26 157.72 171.70 11.88 -170.22 167.10 93.84 -91.58 -15.18 
DOCKED: USER  keepresnum = 1 
DOCKED: USER  
DOCKED: REMARK  Name = 
DOCKED: REMARK  11 active torsions:
DOCKED: REMARK  status: ('A' for Active; 'I' for Inactive)
DOCKED: REMARK    1  A    between atoms: C_2  and  O_3
DOCKED: REMARK    2  A    between atoms: O_3  and  C_4
DOCKED: REMARK    3  A    between atoms: C_4  and  C_5
DOCKED: REMARK    4  A    between atoms: C_10  and  C_11
DOCKED: REMARK    5  A    between atoms: C_11  and  N_12
DOCKED: REMARK    6  A    between atoms: N_12  and  C_13
DOCKED: REMARK    7  A    between atoms: N_12  and  C_15
DOCKED: REMARK    8  A    between atoms: C_13  and  C_14
DOCKED: REMARK    9  A    between atoms: C_15  and  C_16
DOCKED: REMARK   10  A    between atoms: N_21  and  C_22
DOCKED: REMARK   11  A    between atoms: C_25  and  C_26
DOCKED: REMARK                            x       y       z     vdW  Elec       q    Type
DOCKED: REMARK                         _______ _______ _______ _____ _____    ______ ____
DOCKED: USER                              x       y       z     vdW  Elec       q    Type
DOCKED: USER                           _______ _______ _______ _____ _____    ______ ____
DOCKED: ROOT
DOCKED: ATOM      1  C   UNL     1      35.514  18.336 121.740 -0.27 -0.00    +0.000 C 
DOCKED: ENDROOT
DOCKED: BRANCH   1   2
DOCKED: ATOM      2  C   UNL     1      35.301  18.374 123.227 -0.25 -0.00    +0.000 A 
DOCKED: ATOM      3  C   UNL     1      35.833  19.417 123.998 -0.18 -0.00    +0.000 A 
DOCKED: ATOM      4  C   UNL     1      35.648  19.438 125.384 -0.17 -0.00    +0.000 A 
DOCKED: ATOM      5  C   UNL     1      34.939  18.407 126.018 -0.24 -0.00    +0.000 A 
DOCKED: ATOM      6  C   UNL     1      34.756  18.415 127.409 -0.17 -0.00    +0.000 A 
DOCKED: ATOM      7  C   UNL     1      34.076  17.363 128.043 -0.22 -0.00    +0.000 A 
DOCKED: ATOM      8  C   UNL     1      33.541  16.322 127.269 -0.30 -0.00    +0.000 A 
DOCKED: ATOM      9  C   UNL     1      33.711  16.310 125.881 -0.33 -0.00    +0.000 A 
DOCKED: ATOM     10  C   UNL     1      34.412  17.344 125.246 -0.38 -0.00    +0.000 A 
DOCKED: ATOM     11  C   UNL     1      34.596  17.336 123.855 -0.38 -0.00    +0.000 A 
DOCKED: ATOM     12  CM  UNL     1      35.122  18.387 124.621 -0.32 -0.00    +0.000 AC
DOCKED: ATOM     13  CM  UNL     1      34.239  17.360 126.645 -0.06 -0.00    +0.000 AC
DOCKED: BRANCH   7  12
DOCKED: ATOM     14  C   UNL     1      33.873  17.385 129.537 -0.23 -0.00    +0.000 C 
DOCKED: BRANCH  12  13
DOCKED: ATOM     15  N   UNL     1      32.513  16.926 129.895 -0.30 -0.00    +0.000 N 
DOCKED: ATOM     16  H   UNL     1      32.482  15.998 129.469 -0.37 -0.00    +0.000 HD
DOCKED: BRANCH  13  15
DOCKED: ATOM     17  C   UNL     1      32.314  16.679 131.339 -0.28 -0.00    +0.000 C 
DOCKED: ATOM     18  C   UNL     1      33.406  15.814 131.972 -0.29 -0.00    +0.000 C 
DOCKED: ENDBRANCH  13  15
DOCKED: BRANCH  13  17
DOCKED: ATOM     19  C   UNL     1      31.378  17.591 129.206 -0.38 -0.00    +0.000 C 
DOCKED: ATOM     20  C   UNL     1      30.539  16.671 128.308 -0.44 -0.00    +0.000 C 
DOCKED: ENDBRANCH  13  17
DOCKED: ENDBRANCH  12  13
DOCKED: ENDBRANCH   7  12
DOCKED: ENDBRANCH   1   2
DOCKED: BRANCH   1  19
DOCKED: ATOM     21  O   UNL     1      36.674  17.564 121.452 -0.17 -0.00    +0.000 OA
DOCKED: BRANCH  19  21
DOCKED: ATOM     22  O   UNL     1      36.529  15.663 120.152 -0.22 -0.00    +0.000 OA
DOCKED: ATOM     23  C   UNL     1      36.639  16.174 121.301 -0.21 -0.00    +0.000 C 
DOCKED: ATOM     24  N   UNL     1      36.683  15.345 122.470 -0.31 -0.00    +0.000 N 
DOCKED: ATOM     25  H   UNL     1      36.649  15.788 123.349 -0.01 -0.00    +0.000 HD
DOCKED: BRANCH  22  24
DOCKED: ATOM     26  C   UNL     1      36.776  13.911 122.445 -0.40 -0.00    +0.000 A 
DOCKED: ATOM     27  C   UNL     1      37.285  13.275 121.304 -0.41 -0.00    +0.000 A 
DOCKED: ATOM     28  C   UNL     1      37.362  11.881 121.241 -0.43 -0.00    +0.000 A 
DOCKED: ATOM     29  C   UNL     1      36.908  11.092 122.315 -0.52 -0.00    +0.000 A 
DOCKED: ATOM     30  C   UNL     1      36.391  11.733 123.456 -0.63 -0.00    +0.000 A 
DOCKED: ATOM     31  C   UNL     1      36.316  13.127 123.516 -0.55 -0.00    +0.000 A 
DOCKED: ATOM     32  CM  UNL     1      36.839  12.503 122.380 +0.00 -0.00    +0.000 AC
DOCKED: BRANCH  27  30
DOCKED: ATOM     33  C   UNL     1      36.978   9.610 122.267 -0.62 -0.00    +0.000 C 
DOCKED: ATOM     34  N   UNL     1      37.154   8.832 123.456 -0.59 -0.00    +0.000 N 
DOCKED: ATOM     35  O   UNL     1      37.112   7.481 123.396 -2.49 -0.00    +0.000 OA
DOCKED: ATOM     36  O   UNL     1      36.895   9.020 121.155 -2.67 -0.00    +0.000 OA
DOCKED: ATOM     37  H   UNL     1      37.308   9.281 124.317 -0.60 -0.00    +0.000 HD
DOCKED: ENDBRANCH  27  30
DOCKED: ENDBRANCH  22  24
DOCKED: ENDBRANCH  19  21
DOCKED: ENDBRANCH   1  19
DOCKED: TORSDOF 9DOCKED: TER
DOCKED: ENDMDL
________________________________________________________________________________


	BEGINNING GENETIC ALGORITHM DOCKING 37 of 100
Run: 37 Seed: 274682935 838552417 [ Run 37 of 100 GA/GALS ]
Beginning LAMARCKIAN GENETIC ALGORITHM (LGA), with a maximum of 2500000 energy evaluations.

Final-Value: -16.505


	FINAL GENETIC ALGORITHM DOCKED STATE
	_______________________________________________


Detailed state:  trans 38.479 16.348 122.837 quatxyzw 0.134700 -0.500985 0.783354 -0.342385 center 1.619 0.086 0.013 ntor 9 -160.5161 126.4652 -8.4641 158.6707 139.3709 -133.4573 64.0757 -179.8991 -23.6542
State:	 38.479  16.348 122.837   0.143 -0.533  0.834 -139.956   -160.52  126.47   -8.46  158.67  139.37 -133.46   64.08 -179.90  -23.65

DOCKED: MODEL       37
DOCKED: USER    Run = 37
DOCKED: USER    DPF = ligand_dock.biased.dpf
DOCKED: USER  
DOCKED: USER    Estimated Free Energy of Binding    =  -11.93 kcal/mol  [=(1)+(2)+(3)-(4)]
DOCKED: USER    Estimated Inhibition Constant, Ki   =    1.81 nM (nanomolar)  [Temperature = 298.15 K]
DOCKED: USER    
DOCKED: USER    (1) Final Intermolecular Energy     =  -14.61 kcal/mol
DOCKED: USER        vdW + Hbond + desolv Energy     =  -14.61 kcal/mol
DOCKED: USER        Electrostatic Energy            =   +0.00 kcal/mol
DOCKED: USER    (2) Final Total Internal Energy     =   -1.89 kcal/mol
DOCKED: USER    (3) Torsional Free Energy           =   +2.68 kcal/mol
DOCKED: USER    (4) Unbound System's Energy  [=(2)] =   -1.89 kcal/mol
DOCKED: USER    
DOCKED: USER    
DOCKED: USER    NEWDPF move ligand.dum.pdbqt
DOCKED: USER    NEWDPF about 1.619000 0.086000 0.013000
DOCKED: USER    NEWDPF tran0 38.478518 16.347839 122.836998
DOCKED: USER    NEWDPF quaternion0 0.134700 -0.500985 0.783354 -0.342385
DOCKED: USER    NEWDPF axisangle0 0.143365 -0.533212 0.833745 -139.955544
DOCKED: USER    NEWDPF quat0 0.143365 -0.533212 0.833745 -139.955544
DOCKED: USER    NEWDPF dihe0 -160.52 126.47 -8.46 158.67 139.37 -133.46 64.08 -179.90 -23.65 
DOCKED: USER  keepresnum = 1 
DOCKED: USER  
DOCKED: REMARK  Name = 
DOCKED: REMARK  11 active torsions:
DOCKED: REMARK  status: ('A' for Active; 'I' for Inactive)
DOCKED: REMARK    1  A    between atoms: C_2  and  O_3
DOCKED: REMARK    2  A    between atoms: O_3  and  C_4
DOCKED: REMARK    3  A    between atoms: C_4  and  C_5
DOCKED: REMARK    4  A    between atoms: C_10  and  C_11
DOCKED: REMARK    5  A    between atoms: C_11  and  N_12
DOCKED: REMARK    6  A    between atoms: N_12  and  C_13
DOCKED: REMARK    7  A    between atoms: N_12  and  C_15
DOCKED: REMARK    8  A    between atoms: C_13  and  C_14
DOCKED: REMARK    9  A    between atoms: C_15  and  C_16
DOCKED: REMARK   10  A    between atoms: N_21  and  C_22
DOCKED: REMARK   11  A    between atoms: C_25  and  C_26
DOCKED: REMARK                            x       y       z     vdW  Elec       q    Type
DOCKED: REMARK                         _______ _______ _______ _____ _____    ______ ____
DOCKED: USER                              x       y       z     vdW  Elec       q    Type
DOCKED: USER                           _______ _______ _______ _____ _____    ______ ____
DOCKED: ROOT
DOCKED: ATOM      1  C   UNL     1      38.746  18.635 122.178 -0.08 -0.00    +0.000 C 
DOCKED: ENDROOT
DOCKED: BRANCH   1   2
DOCKED: ATOM      2  C   UNL     1      39.750  17.853 121.380 -0.07 -0.00    +0.000 A 
DOCKED: ATOM      3  C   UNL     1      39.406  17.313 120.132 -0.07 -0.00    +0.000 A 
DOCKED: ATOM      4  C   UNL     1      40.338  16.571 119.401 -0.11 -0.00    +0.000 A 
DOCKED: ATOM      5  C   UNL     1      41.623  16.347 119.916 -0.15 -0.00    +0.000 A 
DOCKED: ATOM      6  C   UNL     1      42.562  15.594 119.193 +0.06 -0.00    +0.000 A 
DOCKED: ATOM      7  C   UNL     1      43.836  15.343 119.728 -0.21 -0.00    +0.000 A 
DOCKED: ATOM      8  C   UNL     1      44.179  15.887 120.976 -0.19 -0.00    +0.000 A 
DOCKED: ATOM      9  C   UNL     1      43.253  16.644 121.700 -0.28 -0.00    +0.000 A 
DOCKED: ATOM     10  C   UNL     1      41.971  16.876 121.181 -0.17 -0.00    +0.000 A 
DOCKED: ATOM     11  C   UNL     1      41.032  17.627 121.904 -0.13 -0.00    +0.000 A 
DOCKED: ATOM     12  CM  UNL     1      40.686  17.098 120.652 +0.00 -0.00    +0.000 AC
DOCKED: ATOM     13  CM  UNL     1      42.904  16.115 120.449 +0.00 -0.00    +0.000 AC
DOCKED: BRANCH   7  12
DOCKED: ATOM     14  C   UNL     1      44.843  14.544 118.941 -0.41 -0.00    +0.000 C 
DOCKED: BRANCH  12  13
DOCKED: ATOM     15  N   UNL     1      45.642  15.421 118.058 -0.28 -0.00    +0.000 N 
DOCKED: ATOM     16  H   UNL     1      45.951  14.772 117.334 -0.45 -0.00    +0.000 HD
DOCKED: BRANCH  13  15
DOCKED: ATOM     17  C   UNL     1      44.851  16.437 117.332 -0.19 -0.00    +0.000 C 
DOCKED: ATOM     18  C   UNL     1      44.305  15.948 115.988 -0.29 -0.00    +0.000 C 
DOCKED: ENDBRANCH  13  15
DOCKED: BRANCH  13  17
DOCKED: ATOM     19  C   UNL     1      46.946  15.897 118.588 -0.24 +0.00    +0.000 C 
DOCKED: ATOM     20  C   UNL     1      48.118  14.927 118.382 -0.36 +0.00    +0.000 C 
DOCKED: ENDBRANCH  13  17
DOCKED: ENDBRANCH  12  13
DOCKED: ENDBRANCH   7  12
DOCKED: ENDBRANCH   1   2
DOCKED: BRANCH   1  19
DOCKED: ATOM     21  O   UNL     1      37.938  17.735 122.928 -0.16 -0.00    +0.000 OA
DOCKED: BRANCH  19  21
DOCKED: ATOM     22  O   UNL     1      39.144  15.795 123.252 -0.29 -0.00    +0.000 OA
DOCKED: ATOM     23  C   UNL     1      38.082  16.346 122.852 -0.27 -0.00    +0.000 C 
DOCKED: ATOM     24  N   UNL     1      37.026  15.568 122.271 -0.28 -0.00    +0.000 N 
DOCKED: ATOM     25  H   UNL     1      36.269  16.050 121.865 -0.01 -0.00    +0.000 HD
DOCKED: BRANCH  22  24
DOCKED: ATOM     26  C   UNL     1      36.999  14.131 122.243 -0.38 -0.00    +0.000 A 
DOCKED: ATOM     27  C   UNL     1      36.568  13.429 123.378 -0.52 -0.00    +0.000 A 
DOCKED: ATOM     28  C   UNL     1      36.556  12.032 123.388 -0.62 -0.00    +0.000 A 
DOCKED: ATOM     29  C   UNL     1      36.998  11.306 122.266 -0.51 -0.00    +0.000 A 
DOCKED: ATOM     30  C   UNL     1      37.436  12.013 121.132 -0.44 -0.00    +0.000 A 
DOCKED: ATOM     31  C   UNL     1      37.447  13.411 121.124 -0.40 -0.00    +0.000 A 
DOCKED: ATOM     32  CM  UNL     1      37.001  12.720 122.255 +0.00 -0.00    +0.000 AC
DOCKED: BRANCH  27  30
DOCKED: ATOM     33  C   UNL     1      36.995   9.822 122.258 -0.60 -0.00    +0.000 C 
DOCKED: ATOM     34  N   UNL     1      37.188   9.068 123.460 -0.53 -0.00    +0.000 N 
DOCKED: ATOM     35  O   UNL     1      37.079   7.720 123.443 -2.69 -0.00    +0.000 OA
DOCKED: ATOM     36  O   UNL     1      36.833   9.207 121.169 -2.67 -0.00    +0.000 OA
DOCKED: ATOM     37  H   UNL     1      37.402   9.532 124.301 -0.63 -0.00    +0.000 HD
DOCKED: ENDBRANCH  27  30
DOCKED: ENDBRANCH  22  24
DOCKED: ENDBRANCH  19  21
DOCKED: ENDBRANCH   1  19
DOCKED: TORSDOF 9DOCKED: TER
DOCKED: ENDMDL
________________________________________________________________________________


	BEGINNING GENETIC ALGORITHM DOCKING 38 of 100
Run: 38 Seed: 102316341 243417936 [ Run 38 of 100 GA/GALS ]
Beginning LAMARCKIAN GENETIC ALGORITHM (LGA), with a maximum of 2500000 energy evaluations.

Final-Value: -17.103


	FINAL GENETIC ALGORITHM DOCKED STATE
	_______________________________________________


Detailed state:  trans 36.368 16.939 121.730 quatxyzw -0.812440 0.137619 -0.521221 0.222105 center 1.619 0.086 0.013 ntor 9 151.6780 -59.3582 -3.9540 -89.8566 128.5418 88.2339 -34.8064 112.4907 -150.0584
State:	 36.368  16.939 121.730  -0.833  0.141 -0.535 154.335    151.68  -59.36   -3.95  -89.86  128.54   88.23  -34.81  112.49 -150.06

DOCKED: MODEL       38
DOCKED: USER    Run = 38
DOCKED: USER    DPF = ligand_dock.biased.dpf
DOCKED: USER  
DOCKED: USER    Estimated Free Energy of Binding    =  -12.73 kcal/mol  [=(1)+(2)+(3)-(4)]
DOCKED: USER    Estimated Inhibition Constant, Ki   =  466.38 pM (picomolar)  [Temperature = 298.15 K]
DOCKED: USER    
DOCKED: USER    (1) Final Intermolecular Energy     =  -15.41 kcal/mol
DOCKED: USER        vdW + Hbond + desolv Energy     =  -15.41 kcal/mol
DOCKED: USER        Electrostatic Energy            =   +0.00 kcal/mol
DOCKED: USER    (2) Final Total Internal Energy     =   -1.69 kcal/mol
DOCKED: USER    (3) Torsional Free Energy           =   +2.68 kcal/mol
DOCKED: USER    (4) Unbound System's Energy  [=(2)] =   -1.69 kcal/mol
DOCKED: USER    
DOCKED: USER    
DOCKED: USER    NEWDPF move ligand.dum.pdbqt
DOCKED: USER    NEWDPF about 1.619000 0.086000 0.013000
DOCKED: USER    NEWDPF tran0 36.368074 16.939288 121.730024
DOCKED: USER    NEWDPF quaternion0 -0.812440 0.137619 -0.521221 0.222105
DOCKED: USER    NEWDPF axisangle0 -0.833253 0.141144 -0.534573 154.334573
DOCKED: USER    NEWDPF quat0 -0.833253 0.141144 -0.534573 154.334573
DOCKED: USER    NEWDPF dihe0 151.68 -59.36 -3.95 -89.86 128.54 88.23 -34.81 112.49 -150.06 
DOCKED: USER  keepresnum = 1 
DOCKED: USER  
DOCKED: REMARK  Name = 
DOCKED: REMARK  11 active torsions:
DOCKED: REMARK  status: ('A' for Active; 'I' for Inactive)
DOCKED: REMARK    1  A    between atoms: C_2  and  O_3
DOCKED: REMARK    2  A    between atoms: O_3  and  C_4
DOCKED: REMARK    3  A    between atoms: C_4  and  C_5
DOCKED: REMARK    4  A    between atoms: C_10  and  C_11
DOCKED: REMARK    5  A    between atoms: C_11  and  N_12
DOCKED: REMARK    6  A    between atoms: N_12  and  C_13
DOCKED: REMARK    7  A    between atoms: N_12  and  C_15
DOCKED: REMARK    8  A    between atoms: C_13  and  C_14
DOCKED: REMARK    9  A    between atoms: C_15  and  C_16
DOCKED: REMARK   10  A    between atoms: N_21  and  C_22
DOCKED: REMARK   11  A    between atoms: C_25  and  C_26
DOCKED: REMARK                            x       y       z     vdW  Elec       q    Type
DOCKED: REMARK                         _______ _______ _______ _____ _____    ______ ____
DOCKED: USER                              x       y       z     vdW  Elec       q    Type
DOCKED: USER                           _______ _______ _______ _____ _____    ______ ____
DOCKED: ROOT
DOCKED: ATOM      1  C   UNL     1      34.823  18.407 122.824 -0.22 -0.00    +0.000 C 
DOCKED: ENDROOT
DOCKED: BRANCH   1   2
DOCKED: ATOM      2  C   UNL     1      34.306  18.228 121.425 -0.28 -0.00    +0.000 A 
DOCKED: ATOM      3  C   UNL     1      35.194  18.136 120.343 -0.23 -0.00    +0.000 A 
DOCKED: ATOM      4  C   UNL     1      34.708  17.988 119.040 -0.17 -0.00    +0.000 A 
DOCKED: ATOM      5  C   UNL     1      33.326  17.945 118.802 -0.14 -0.00    +0.000 A 
DOCKED: ATOM      6  C   UNL     1      32.829  17.806 117.497 -0.15 -0.00    +0.000 A 
DOCKED: ATOM      7  C   UNL     1      31.445  17.798 117.260 -0.17 -0.00    +0.000 A 
DOCKED: ATOM      8  C   UNL     1      30.559  17.887 118.345 -0.30 -0.00    +0.000 A 
DOCKED: ATOM      9  C   UNL     1      31.045  18.018 119.649 -0.38 -0.00    +0.000 A 
DOCKED: ATOM     10  C   UNL     1      32.426  18.052 119.888 -0.24 -0.00    +0.000 A 
DOCKED: ATOM     11  C   UNL     1      32.922  18.192 121.193 -0.21 -0.00    +0.000 A 
DOCKED: ATOM     12  CM  UNL     1      33.814  18.090 120.115 +0.00 -0.00    +0.000 AC
DOCKED: ATOM     13  CM  UNL     1      31.938  17.918 118.574 +0.00 -0.00    +0.000 AC
DOCKED: BRANCH   7  12
DOCKED: ATOM     14  C   UNL     1      30.919  17.637 115.856 -0.11 -0.00    +0.000 C 
DOCKED: BRANCH  12  13
DOCKED: ATOM     15  N   UNL     1      30.993  16.225 115.421 -0.16 -0.00    +0.000 N 
DOCKED: ATOM     16  H   UNL     1      31.928  15.954 115.731 +0.00 -0.00    +0.000 HD
DOCKED: BRANCH  13  15
DOCKED: ATOM     17  C   UNL     1      30.083  15.315 116.149 -0.36 -0.00    +0.000 C 
DOCKED: ATOM     18  C   UNL     1      30.734  13.992 116.560 -0.47 -0.00    +0.000 C 
DOCKED: ENDBRANCH  13  15
DOCKED: BRANCH  13  17
DOCKED: ATOM     19  C   UNL     1      31.097  15.978 113.960 -0.15 -0.00    +0.000 C 
DOCKED: ATOM     20  C   UNL     1      29.784  15.567 113.280 -0.23 -0.00    +0.000 C 
DOCKED: ENDBRANCH  13  17
DOCKED: ENDBRANCH  12  13
DOCKED: ENDBRANCH   7  12
DOCKED: ENDBRANCH   1   2
DOCKED: BRANCH   1  19
DOCKED: ATOM     21  O   UNL     1      35.951  17.561 123.020 -0.25 -0.00    +0.000 OA
DOCKED: BRANCH  19  21
DOCKED: ATOM     22  O   UNL     1      34.829  15.629 123.598 -0.55 -0.00    +0.000 OA
DOCKED: ATOM     23  C   UNL     1      35.849  16.168 123.086 -0.38 -0.00    +0.000 C 
DOCKED: ATOM     24  N   UNL     1      36.939  15.367 122.610 -0.32 -0.00    +0.000 N 
DOCKED: ATOM     25  H   UNL     1      37.762  15.830 122.329 +0.00 -0.00    +0.000 HD
DOCKED: BRANCH  22  24
DOCKED: ATOM     26  C   UNL     1      36.910  13.933 122.512 -0.42 -0.00    +0.000 A 
DOCKED: ATOM     27  C   UNL     1      36.636  13.171 123.657 -0.51 -0.00    +0.000 A 
DOCKED: ATOM     28  C   UNL     1      36.627  11.775 123.597 -0.62 -0.00    +0.000 A 
DOCKED: ATOM     29  C   UNL     1      36.916  11.111 122.391 -0.53 -0.00    +0.000 A 
DOCKED: ATOM     30  C   UNL     1      37.198  11.877 121.246 -0.46 -0.00    +0.000 A 
DOCKED: ATOM     31  C   UNL     1      37.205  13.273 121.308 -0.41 -0.00    +0.000 A 
DOCKED: ATOM     32  CM  UNL     1      36.916  12.523 122.451 +0.00 -0.00    +0.000 AC
DOCKED: BRANCH  27  30
DOCKED: ATOM     33  C   UNL     1      36.914   9.628 122.308 -0.64 -0.00    +0.000 C 
DOCKED: ATOM     34  N   UNL     1      37.174   8.815 123.457 -0.59 -0.00    +0.000 N 
DOCKED: ATOM     35  O   UNL     1      37.065   7.469 123.377 -2.49 -0.00    +0.000 OA
DOCKED: ATOM     36  O   UNL     1      36.692   9.069 121.199 -2.62 -0.00    +0.000 OA
DOCKED: ATOM     37  H   UNL     1      37.434   9.237 124.307 -0.64 -0.00    +0.000 HD
DOCKED: ENDBRANCH  27  30
DOCKED: ENDBRANCH  22  24
DOCKED: ENDBRANCH  19  21
DOCKED: ENDBRANCH   1  19
DOCKED: TORSDOF 9DOCKED: TER
DOCKED: ENDMDL
________________________________________________________________________________


	BEGINNING GENETIC ALGORITHM DOCKING 39 of 100
Run: 39 Seed: 866929830 169847711 [ Run 39 of 100 GA/GALS ]
Beginning LAMARCKIAN GENETIC ALGORITHM (LGA), with a maximum of 2500000 energy evaluations.

Final-Value: -18.106


	FINAL GENETIC ALGORITHM DOCKED STATE
	_______________________________________________


Detailed state:  trans 37.159 16.620 124.521 quatxyzw -0.366229 -0.399764 0.063137 0.837902 center 1.619 0.086 0.013 ntor 9 160.5807 -86.3168 171.7407 139.2303 145.0484 61.6445 -176.1514 -101.3584 -170.1612
State:	 37.159  16.620 124.521  -0.671 -0.732  0.116 66.162    160.58  -86.32  171.74  139.23  145.05   61.64 -176.15 -101.36 -170.16

DOCKED: MODEL       39
DOCKED: USER    Run = 39
DOCKED: USER    DPF = ligand_dock.biased.dpf
DOCKED: USER  
DOCKED: USER    Estimated Free Energy of Binding    =  -13.73 kcal/mol  [=(1)+(2)+(3)-(4)]
DOCKED: USER    Estimated Inhibition Constant, Ki   =   85.71 pM (picomolar)  [Temperature = 298.15 K]
DOCKED: USER    
DOCKED: USER    (1) Final Intermolecular Energy     =  -16.42 kcal/mol
DOCKED: USER        vdW + Hbond + desolv Energy     =  -16.42 kcal/mol
DOCKED: USER        Electrostatic Energy            =   +0.00 kcal/mol
DOCKED: USER    (2) Final Total Internal Energy     =   -1.69 kcal/mol
DOCKED: USER    (3) Torsional Free Energy           =   +2.68 kcal/mol
DOCKED: USER    (4) Unbound System's Energy  [=(2)] =   -1.69 kcal/mol
DOCKED: USER    
DOCKED: USER    
DOCKED: USER    NEWDPF move ligand.dum.pdbqt
DOCKED: USER    NEWDPF about 1.619000 0.086000 0.013000
DOCKED: USER    NEWDPF tran0 37.159337 16.620356 124.520831
DOCKED: USER    NEWDPF quaternion0 -0.366229 -0.399764 0.063137 0.837902
DOCKED: USER    NEWDPF axisangle0 -0.670968 -0.732408 0.115673 66.161621
DOCKED: USER    NEWDPF quat0 -0.670968 -0.732408 0.115673 66.161621
DOCKED: USER    NEWDPF dihe0 160.58 -86.32 171.74 139.23 145.05 61.64 -176.15 -101.36 -170.16 
DOCKED: USER  keepresnum = 1 
DOCKED: USER  
DOCKED: REMARK  Name = 
DOCKED: REMARK  11 active torsions:
DOCKED: REMARK  status: ('A' for Active; 'I' for Inactive)
DOCKED: REMARK    1  A    between atoms: C_2  and  O_3
DOCKED: REMARK    2  A    between atoms: O_3  and  C_4
DOCKED: REMARK    3  A    between atoms: C_4  and  C_5
DOCKED: REMARK    4  A    between atoms: C_10  and  C_11
DOCKED: REMARK    5  A    between atoms: C_11  and  N_12
DOCKED: REMARK    6  A    between atoms: N_12  and  C_13
DOCKED: REMARK    7  A    between atoms: N_12  and  C_15
DOCKED: REMARK    8  A    between atoms: C_13  and  C_14
DOCKED: REMARK    9  A    between atoms: C_15  and  C_16
DOCKED: REMARK   10  A    between atoms: N_21  and  C_22
DOCKED: REMARK   11  A    between atoms: C_25  and  C_26
DOCKED: REMARK                            x       y       z     vdW  Elec       q    Type
DOCKED: REMARK                         _______ _______ _______ _____ _____    ______ ____
DOCKED: USER                              x       y       z     vdW  Elec       q    Type
DOCKED: USER                           _______ _______ _______ _____ _____    ______ ____
DOCKED: ROOT
DOCKED: ATOM      1  C   UNL     1      35.807  18.010 123.114 -0.27 -0.00    +0.000 C 
DOCKED: ENDROOT
DOCKED: BRANCH   1   2
DOCKED: ATOM      2  C   UNL     1      34.956  17.670 124.304 -0.33 -0.00    +0.000 A 
DOCKED: ATOM      3  C   UNL     1      34.697  16.333 124.639 -0.45 -0.00    +0.000 A 
DOCKED: ATOM      4  C   UNL     1      33.889  16.021 125.737 -0.32 -0.00    +0.000 A 
DOCKED: ATOM      5  C   UNL     1      33.318  17.045 126.506 -0.31 -0.00    +0.000 A 
DOCKED: ATOM      6  C   UNL     1      32.498  16.743 127.604 -0.37 -0.00    +0.000 A 
DOCKED: ATOM      7  C   UNL     1      31.899  17.771 128.350 -0.29 -0.00    +0.000 A 
DOCKED: ATOM      8  C   UNL     1      32.162  19.109 128.015 -0.18 -0.00    +0.000 A 
DOCKED: ATOM      9  C   UNL     1      32.983  19.420 126.927 -0.22 -0.00    +0.000 A 
DOCKED: ATOM     10  C   UNL     1      33.562  18.396 126.164 -0.30 -0.00    +0.000 A 
DOCKED: ATOM     11  C   UNL     1      34.381  18.700 125.065 -0.27 -0.00    +0.000 A 
DOCKED: ATOM     12  CM  UNL     1      34.134  17.360 125.402 -0.26 -0.00    +0.000 AC
DOCKED: ATOM     13  CM  UNL     1      32.737  18.081 127.261 +0.00 -0.00    +0.000 AC
DOCKED: BRANCH   7  12
DOCKED: ATOM     14  C   UNL     1      31.029  17.437 129.535 -0.42 -0.00    +0.000 C 
DOCKED: BRANCH  12  13
DOCKED: ATOM     15  N   UNL     1      31.811  17.460 130.790 -0.27 -0.00    +0.000 N 
DOCKED: ATOM     16  H   UNL     1      31.124  17.148 131.477 -0.28 -0.00    +0.000 HD
DOCKED: BRANCH  13  15
DOCKED: ATOM     17  C   UNL     1      32.887  16.448 130.856 -0.28 -0.00    +0.000 C 
DOCKED: ATOM     18  C   UNL     1      32.836  15.576 132.112 -0.33 -0.00    +0.000 C 
DOCKED: ENDBRANCH  13  15
DOCKED: BRANCH  13  17
DOCKED: ATOM     19  C   UNL     1      32.168  18.796 131.334 -0.13 -0.00    +0.000 C 
DOCKED: ATOM     20  C   UNL     1      33.659  18.990 131.643 -0.07 -0.00    +0.000 C 
DOCKED: ENDBRANCH  13  17
DOCKED: ENDBRANCH  12  13
DOCKED: ENDBRANCH   7  12
DOCKED: ENDBRANCH   1   2
DOCKED: BRANCH   1  19
DOCKED: ATOM     21  O   UNL     1      37.118  17.492 123.312 -0.22 -0.00    +0.000 OA
DOCKED: BRANCH  19  21
DOCKED: ATOM     22  O   UNL     1      38.587  15.717 123.434 -0.34 -0.00    +0.000 OA
DOCKED: ATOM     23  C   UNL     1      37.429  16.138 123.158 -0.31 -0.00    +0.000 C 
DOCKED: ATOM     24  N   UNL     1      36.431  15.249 122.639 -0.34 -0.00    +0.000 N 
DOCKED: ATOM     25  H   UNL     1      35.583  15.642 122.326 -0.02 -0.00    +0.000 HD
DOCKED: BRANCH  22  24
DOCKED: ATOM     26  C   UNL     1      36.584  13.823 122.546 -0.38 -0.00    +0.000 A 
DOCKED: ATOM     27  C   UNL     1      37.255  13.273 121.444 -0.41 -0.00    +0.000 A 
DOCKED: ATOM     28  C   UNL     1      37.395  11.889 121.315 -0.42 -0.00    +0.000 A 
DOCKED: ATOM     29  C   UNL     1      36.846  11.023 122.278 -0.53 -0.00    +0.000 A 
DOCKED: ATOM     30  C   UNL     1      36.168  11.577 123.380 -0.62 -0.00    +0.000 A 
DOCKED: ATOM     31  C   UNL     1      36.029  12.962 123.507 -0.55 -0.00    +0.000 A 
DOCKED: ATOM     32  CM  UNL     1      36.712  12.424 122.412 +0.00 -0.00    +0.000 AC
DOCKED: BRANCH  27  30
DOCKED: ATOM     33  C   UNL     1      36.982   9.550 122.158 -0.63 -0.00    +0.000 C 
DOCKED: ATOM     34  N   UNL     1      37.043   8.708 123.315 -0.66 -0.00    +0.000 N 
DOCKED: ATOM     35  O   UNL     1      37.063   7.363 123.176 -2.36 -0.00    +0.000 OA
DOCKED: ATOM     36  O   UNL     1      37.061   9.024 121.013 -2.72 -0.00    +0.000 OA
DOCKED: ATOM     37  H   UNL     1      37.070   9.110 124.212 -0.57 -0.00    +0.000 HD
DOCKED: ENDBRANCH  27  30
DOCKED: ENDBRANCH  22  24
DOCKED: ENDBRANCH  19  21
DOCKED: ENDBRANCH   1  19
DOCKED: TORSDOF 9DOCKED: TER
DOCKED: ENDMDL
________________________________________________________________________________


	BEGINNING GENETIC ALGORITHM DOCKING 40 of 100
Run: 40 Seed: 1809219150 265525121 [ Run 40 of 100 GA/GALS ]
Beginning LAMARCKIAN GENETIC ALGORITHM (LGA), with a maximum of 2500000 energy evaluations.

Final-Value: -17.722


	FINAL GENETIC ALGORITHM DOCKED STATE
	_______________________________________________


Detailed state:  trans 37.524 16.669 123.726 quatxyzw -0.361684 -0.339903 0.168182 0.851684 center 1.619 0.086 0.013 ntor 9 -115.1174 -26.9780 -174.3798 -21.0839 19.4637 99.8299 119.4532 -86.6513 169.5216
State:	 37.524  16.669 123.726  -0.690 -0.649  0.321 63.209   -115.12  -26.98 -174.38  -21.08   19.46   99.83  119.45  -86.65  169.52

DOCKED: MODEL       40
DOCKED: USER    Run = 40
DOCKED: USER    DPF = ligand_dock.biased.dpf
DOCKED: USER  
DOCKED: USER    Estimated Free Energy of Binding    =  -13.55 kcal/mol  [=(1)+(2)+(3)-(4)]
DOCKED: USER    Estimated Inhibition Constant, Ki   =  116.31 pM (picomolar)  [Temperature = 298.15 K]
DOCKED: USER    
DOCKED: USER    (1) Final Intermolecular Energy     =  -16.24 kcal/mol
DOCKED: USER        vdW + Hbond + desolv Energy     =  -16.24 kcal/mol
DOCKED: USER        Electrostatic Energy            =   +0.00 kcal/mol
DOCKED: USER    (2) Final Total Internal Energy     =   -1.48 kcal/mol
DOCKED: USER    (3) Torsional Free Energy           =   +2.68 kcal/mol
DOCKED: USER    (4) Unbound System's Energy  [=(2)] =   -1.48 kcal/mol
DOCKED: USER    
DOCKED: USER    
DOCKED: USER    NEWDPF move ligand.dum.pdbqt
DOCKED: USER    NEWDPF about 1.619000 0.086000 0.013000
DOCKED: USER    NEWDPF tran0 37.523878 16.669270 123.725506
DOCKED: USER    NEWDPF quaternion0 -0.361684 -0.339903 0.168182 0.851684
DOCKED: USER    NEWDPF axisangle0 -0.690163 -0.648601 0.320923 63.209423
DOCKED: USER    NEWDPF quat0 -0.690163 -0.648601 0.320923 63.209423
DOCKED: USER    NEWDPF dihe0 -115.12 -26.98 -174.38 -21.08 19.46 99.83 119.45 -86.65 169.52 
DOCKED: USER  keepresnum = 1 
DOCKED: USER  
DOCKED: REMARK  Name = 
DOCKED: REMARK  11 active torsions:
DOCKED: REMARK  status: ('A' for Active; 'I' for Inactive)
DOCKED: REMARK    1  A    between atoms: C_2  and  O_3
DOCKED: REMARK    2  A    between atoms: O_3  and  C_4
DOCKED: REMARK    3  A    between atoms: C_4  and  C_5
DOCKED: REMARK    4  A    between atoms: C_10  and  C_11
DOCKED: REMARK    5  A    between atoms: C_11  and  N_12
DOCKED: REMARK    6  A    between atoms: N_12  and  C_13
DOCKED: REMARK    7  A    between atoms: N_12  and  C_15
DOCKED: REMARK    8  A    between atoms: C_13  and  C_14
DOCKED: REMARK    9  A    between atoms: C_15  and  C_16
DOCKED: REMARK   10  A    between atoms: N_21  and  C_22
DOCKED: REMARK   11  A    between atoms: C_25  and  C_26
DOCKED: REMARK                            x       y       z     vdW  Elec       q    Type
DOCKED: REMARK                         _______ _______ _______ _____ _____    ______ ____
DOCKED: USER                              x       y       z     vdW  Elec       q    Type
DOCKED: USER                           _______ _______ _______ _____ _____    ______ ____
DOCKED: ROOT
DOCKED: ATOM      1  C   UNL     1      36.532  18.146 122.121 -0.19 -0.00    +0.000 C 
DOCKED: ENDROOT
DOCKED: BRANCH   1   2
DOCKED: ATOM      2  C   UNL     1      35.602  18.129 123.300 -0.25 -0.00    +0.000 A 
DOCKED: ATOM      3  C   UNL     1      34.735  17.047 123.510 -0.39 -0.00    +0.000 A 
DOCKED: ATOM      4  C   UNL     1      33.858  17.044 124.600 -0.24 -0.00    +0.000 A 
DOCKED: ATOM      5  C   UNL     1      33.828  18.131 125.485 -0.33 -0.00    +0.000 A 
DOCKED: ATOM      6  C   UNL     1      32.944  18.141 126.575 -0.20 -0.00    +0.000 A 
DOCKED: ATOM      7  C   UNL     1      32.893  19.247 127.439 -0.19 -0.00    +0.000 A 
DOCKED: ATOM      8  C   UNL     1      33.764  20.328 127.229 -0.12 -0.00    +0.000 A 
DOCKED: ATOM      9  C   UNL     1      34.653  20.323 126.150 -0.15 -0.00    +0.000 A 
DOCKED: ATOM     10  C   UNL     1      34.690  19.233 125.269 -0.22 -0.00    +0.000 A 
DOCKED: ATOM     11  C   UNL     1      35.572  19.223 124.179 -0.20 -0.00    +0.000 A 
DOCKED: ATOM     12  CM  UNL     1      34.714  18.134 124.390 -0.32 -0.00    +0.000 AC
DOCKED: ATOM     13  CM  UNL     1      33.795  19.234 126.358 -0.01 -0.00    +0.000 AC
DOCKED: BRANCH   7  12
DOCKED: ATOM     14  C   UNL     1      31.949  19.245 128.615 -0.17 -0.00    +0.000 C 
DOCKED: BRANCH  12  13
DOCKED: ATOM     15  N   UNL     1      30.726  18.470 128.311 -0.32 -0.00    +0.000 N 
DOCKED: ATOM     16  H   UNL     1      31.049  17.839 127.577 -0.45 -0.00    +0.000 HD
DOCKED: BRANCH  13  15
DOCKED: ATOM     17  C   UNL     1      30.286  17.575 129.403 -0.44 -0.00    +0.000 C 
DOCKED: ATOM     18  C   UNL     1      31.431  16.809 130.070 -0.42 -0.00    +0.000 C 
DOCKED: ENDBRANCH  13  15
DOCKED: BRANCH  13  17
DOCKED: ATOM     19  C   UNL     1      29.634  19.188 127.606 -0.46 -0.00    +0.000 C 
DOCKED: ATOM     20  C   UNL     1      28.937  20.276 128.435 -0.42 -0.00    +0.000 C 
DOCKED: ENDBRANCH  13  17
DOCKED: ENDBRANCH  12  13
DOCKED: ENDBRANCH   7  12
DOCKED: ENDBRANCH   1   2
DOCKED: BRANCH   1  19
DOCKED: ATOM     21  O   UNL     1      37.697  17.389 122.431 -0.16 -0.00    +0.000 OA
DOCKED: BRANCH  19  21
DOCKED: ATOM     22  O   UNL     1      38.728  15.606 121.393 -0.24 -0.00    +0.000 OA
DOCKED: ATOM     23  C   UNL     1      37.811  16.024 122.151 -0.26 -0.00    +0.000 C 
DOCKED: ATOM     24  N   UNL     1      36.843  15.119 122.699 -0.35 -0.00    +0.000 N 
DOCKED: ATOM     25  H   UNL     1      36.078  15.502 123.186 -0.01 -0.00    +0.000 HD
DOCKED: BRANCH  22  24
DOCKED: ATOM     26  C   UNL     1      36.917  13.688 122.586 -0.45 -0.00    +0.000 A 
DOCKED: ATOM     27  C   UNL     1      37.233  13.111 121.348 -0.42 -0.00    +0.000 A 
DOCKED: ATOM     28  C   UNL     1      37.286  11.722 121.203 -0.42 -0.00    +0.000 A 
DOCKED: ATOM     29  C   UNL     1      37.000  10.879 122.293 -0.49 -0.00    +0.000 A 
DOCKED: ATOM     30  C   UNL     1      36.675  11.460 123.532 -0.62 -0.00    +0.000 A 
DOCKED: ATOM     31  C   UNL     1      36.624  12.850 123.675 -0.54 -0.00    +0.000 A 
DOCKED: ATOM     32  CM  UNL     1      36.955  12.285 122.440 +0.00 -0.00    +0.000 AC
DOCKED: BRANCH  27  30
DOCKED: ATOM     33  C   UNL     1      37.047   9.401 122.159 -0.63 -0.00    +0.000 C 
DOCKED: ATOM     34  N   UNL     1      37.109   8.548 123.307 -0.68 -0.00    +0.000 N 
DOCKED: ATOM     35  O   UNL     1      37.048   7.205 123.161 -2.19 -0.00    +0.000 OA
DOCKED: ATOM     36  O   UNL     1      37.048   8.882 121.009 -2.70 -0.00    +0.000 OA
DOCKED: ATOM     37  H   UNL     1      37.198   8.941 124.205 -0.58 -0.00    +0.000 HD
DOCKED: ENDBRANCH  27  30
DOCKED: ENDBRANCH  22  24
DOCKED: ENDBRANCH  19  21
DOCKED: ENDBRANCH   1  19
DOCKED: TORSDOF 9DOCKED: TER
DOCKED: ENDMDL
________________________________________________________________________________


	BEGINNING GENETIC ALGORITHM DOCKING 41 of 100
Run: 41 Seed: 2130745254 1413727060 [ Run 41 of 100 GA/GALS ]
Beginning LAMARCKIAN GENETIC ALGORITHM (LGA), with a maximum of 2500000 energy evaluations.

Final-Value: -16.987


	FINAL GENETIC ALGORITHM DOCKED STATE
	_______________________________________________


Detailed state:  trans 35.607 16.614 121.939 quatxyzw 0.491916 -0.299165 0.188946 -0.795499 center 1.619 0.086 0.013 ntor 9 171.0466 -155.3171 163.1883 -89.5414 -96.0269 160.3349 4.3282 -116.8184 129.5886
State:	 35.607  16.614 121.939   0.812 -0.494  0.312 -74.595    171.05 -155.32  163.19  -89.54  -96.03  160.33    4.33 -116.82  129.59

DOCKED: MODEL       41
DOCKED: USER    Run = 41
DOCKED: USER    DPF = ligand_dock.biased.dpf
DOCKED: USER  
DOCKED: USER    Estimated Free Energy of Binding    =  -12.81 kcal/mol  [=(1)+(2)+(3)-(4)]
DOCKED: USER    Estimated Inhibition Constant, Ki   =  407.35 pM (picomolar)  [Temperature = 298.15 K]
DOCKED: USER    
DOCKED: USER    (1) Final Intermolecular Energy     =  -15.49 kcal/mol
DOCKED: USER        vdW + Hbond + desolv Energy     =  -15.49 kcal/mol
DOCKED: USER        Electrostatic Energy            =   +0.00 kcal/mol
DOCKED: USER    (2) Final Total Internal Energy     =   -1.49 kcal/mol
DOCKED: USER    (3) Torsional Free Energy           =   +2.68 kcal/mol
DOCKED: USER    (4) Unbound System's Energy  [=(2)] =   -1.49 kcal/mol
DOCKED: USER    
DOCKED: USER    
DOCKED: USER    NEWDPF move ligand.dum.pdbqt
DOCKED: USER    NEWDPF about 1.619000 0.086000 0.013000
DOCKED: USER    NEWDPF tran0 35.607259 16.614387 121.939402
DOCKED: USER    NEWDPF quaternion0 0.491916 -0.299165 0.188946 -0.795499
DOCKED: USER    NEWDPF axisangle0 0.811803 -0.493708 0.311815 -74.595189
DOCKED: USER    NEWDPF quat0 0.811803 -0.493708 0.311815 -74.595189
DOCKED: USER    NEWDPF dihe0 171.05 -155.32 163.19 -89.54 -96.03 160.33 4.33 -116.82 129.59 
DOCKED: USER  keepresnum = 1 
DOCKED: USER  
DOCKED: REMARK  Name = 
DOCKED: REMARK  11 active torsions:
DOCKED: REMARK  status: ('A' for Active; 'I' for Inactive)
DOCKED: REMARK    1  A    between atoms: C_2  and  O_3
DOCKED: REMARK    2  A    between atoms: O_3  and  C_4
DOCKED: REMARK    3  A    between atoms: C_4  and  C_5
DOCKED: REMARK    4  A    between atoms: C_10  and  C_11
DOCKED: REMARK    5  A    between atoms: C_11  and  N_12
DOCKED: REMARK    6  A    between atoms: N_12  and  C_13
DOCKED: REMARK    7  A    between atoms: N_12  and  C_15
DOCKED: REMARK    8  A    between atoms: C_13  and  C_14
DOCKED: REMARK    9  A    between atoms: C_15  and  C_16
DOCKED: REMARK   10  A    between atoms: N_21  and  C_22
DOCKED: REMARK   11  A    between atoms: C_25  and  C_26
DOCKED: REMARK                            x       y       z     vdW  Elec       q    Type
DOCKED: REMARK                         _______ _______ _______ _____ _____    ______ ____
DOCKED: USER                              x       y       z     vdW  Elec       q    Type
DOCKED: USER                           _______ _______ _______ _____ _____    ______ ____
DOCKED: ROOT
DOCKED: ATOM      1  C   UNL     1      36.750  18.573 121.167 -0.15 -0.00    +0.000 C 
DOCKED: ENDROOT
DOCKED: BRANCH   1   2
DOCKED: ATOM      2  C   UNL     1      35.530  18.436 120.302 -0.20 -0.00    +0.000 A 
DOCKED: ATOM      3  C   UNL     1      35.655  18.230 118.920 -0.13 -0.00    +0.000 A 
DOCKED: ATOM      4  C   UNL     1      34.516  18.121 118.115 -0.14 -0.00    +0.000 A 
DOCKED: ATOM      5  C   UNL     1      33.238  18.230 118.682 -0.22 -0.00    +0.000 A 
DOCKED: ATOM      6  C   UNL     1      32.090  18.131 117.881 -0.19 -0.00    +0.000 A 
DOCKED: ATOM      7  C   UNL     1      30.813  18.276 118.446 -0.30 -0.00    +0.000 A 
DOCKED: ATOM      8  C   UNL     1      30.691  18.479 119.830 -0.35 -0.00    +0.000 A 
DOCKED: ATOM      9  C   UNL     1      31.829  18.571 120.637 -0.32 -0.00    +0.000 A 
DOCKED: ATOM     10  C   UNL     1      33.106  18.453 120.073 -0.34 -0.00    +0.000 A 
DOCKED: ATOM     11  C   UNL     1      34.254  18.552 120.874 -0.26 -0.00    +0.000 A 
DOCKED: ATOM     12  CM  UNL     1      34.384  18.337 119.494 +0.00 -0.00    +0.000 AC
DOCKED: ATOM     13  CM  UNL     1      31.961  18.357 119.258 +0.00 -0.00    +0.000 AC
DOCKED: BRANCH   7  12
DOCKED: ATOM     14  C   UNL     1      29.584  18.157 117.581 -0.25 -0.00    +0.000 C 
DOCKED: BRANCH  12  13
DOCKED: ATOM     15  N   UNL     1      28.506  19.046 118.066 -0.23 -0.00    +0.000 N 
DOCKED: ATOM     16  H   UNL     1      28.534  18.886 119.074 -0.41 -0.00    +0.000 HD
DOCKED: BRANCH  13  15
DOCKED: ATOM     17  C   UNL     1      28.789  20.488 117.912 -0.20 -0.00    +0.000 C 
DOCKED: ATOM     18  C   UNL     1      28.874  21.245 119.239 -0.32 -0.00    +0.000 C 
DOCKED: ENDBRANCH  13  15
DOCKED: BRANCH  13  17
DOCKED: ATOM     19  C   UNL     1      27.111  18.640 117.755 -0.27 -0.00    +0.000 C 
DOCKED: ATOM     20  C   UNL     1      26.033  19.336 118.597 -0.25 -0.00    +0.000 C 
DOCKED: ENDBRANCH  13  17
DOCKED: ENDBRANCH  12  13
DOCKED: ENDBRANCH   7  12
DOCKED: ENDBRANCH   1   2
DOCKED: BRANCH   1  19
DOCKED: ATOM     21  O   UNL     1      36.717  17.579 122.186 -0.18 -0.00    +0.000 OA
DOCKED: BRANCH  19  21
DOCKED: ATOM     22  O   UNL     1      36.847  15.803 120.720 -0.23 -0.00    +0.000 OA
DOCKED: ATOM     23  C   UNL     1      36.716  16.209 121.908 -0.25 -0.00    +0.000 C 
DOCKED: ATOM     24  N   UNL     1      36.519  15.281 122.982 -0.37 -0.00    +0.000 N 
DOCKED: ATOM     25  H   UNL     1      36.303  15.645 123.871 -0.02 -0.00    +0.000 HD
DOCKED: BRANCH  22  24
DOCKED: ATOM     26  C   UNL     1      36.616  13.853 122.848 -0.45 -0.00    +0.000 A 
DOCKED: ATOM     27  C   UNL     1      37.228  13.309 121.710 -0.42 -0.00    +0.000 A 
DOCKED: ATOM     28  C   UNL     1      37.313  11.924 121.541 -0.43 -0.00    +0.000 A 
DOCKED: ATOM     29  C   UNL     1      36.766  11.053 122.501 -0.57 -0.00    +0.000 A 
DOCKED: ATOM     30  C   UNL     1      36.147  11.601 123.639 -0.61 -0.00    +0.000 A 
DOCKED: ATOM     31  C   UNL     1      36.063  12.987 123.806 -0.53 -0.00    +0.000 A 
DOCKED: ATOM     32  CM  UNL     1      36.688  12.454 122.675 +0.00 -0.00    +0.000 AC
DOCKED: BRANCH  27  30
DOCKED: ATOM     33  C   UNL     1      36.844   9.579 122.339 -0.67 -0.00    +0.000 C 
DOCKED: ATOM     34  N   UNL     1      37.094   8.717 123.455 -0.63 -0.00    +0.000 N 
DOCKED: ATOM     35  O   UNL     1      37.058   7.374 123.298 -2.40 -0.00    +0.000 OA
DOCKED: ATOM     36  O   UNL     1      36.701   9.072 121.193 -2.63 -0.00    +0.000 OA
DOCKED: ATOM     37  H   UNL     1      37.294   9.104 124.337 -0.58 -0.00    +0.000 HD
DOCKED: ENDBRANCH  27  30
DOCKED: ENDBRANCH  22  24
DOCKED: ENDBRANCH  19  21
DOCKED: ENDBRANCH   1  19
DOCKED: TORSDOF 9DOCKED: TER
DOCKED: ENDMDL
________________________________________________________________________________


	BEGINNING GENETIC ALGORITHM DOCKING 42 of 100
Run: 42 Seed: 920380390 1418906487 [ Run 42 of 100 GA/GALS ]
Beginning LAMARCKIAN GENETIC ALGORITHM (LGA), with a maximum of 2500000 energy evaluations.

Final-Value: -16.653


	FINAL GENETIC ALGORITHM DOCKED STATE
	_______________________________________________


Detailed state:  trans 37.471 17.204 122.624 quatxyzw -0.153816 -0.735326 0.301214 0.587287 center 1.619 0.086 0.013 ntor 9 -161.1695 -51.7030 173.3415 170.3314 151.9695 -180.0000 113.3120 -83.6313 97.0491
State:	 37.471  17.204 122.624  -0.190 -0.909  0.372 108.071   -161.17  -51.70  173.34  170.33  151.97 -180.00  113.31  -83.63   97.05

DOCKED: MODEL       42
DOCKED: USER    Run = 42
DOCKED: USER    DPF = ligand_dock.biased.dpf
DOCKED: USER  
DOCKED: USER    Estimated Free Energy of Binding    =  -12.15 kcal/mol  [=(1)+(2)+(3)-(4)]
DOCKED: USER    Estimated Inhibition Constant, Ki   =    1.24 nM (nanomolar)  [Temperature = 298.15 K]
DOCKED: USER    
DOCKED: USER    (1) Final Intermolecular Energy     =  -14.84 kcal/mol
DOCKED: USER        vdW + Hbond + desolv Energy     =  -14.84 kcal/mol
DOCKED: USER        Electrostatic Energy            =   +0.00 kcal/mol
DOCKED: USER    (2) Final Total Internal Energy     =   -1.82 kcal/mol
DOCKED: USER    (3) Torsional Free Energy           =   +2.68 kcal/mol
DOCKED: USER    (4) Unbound System's Energy  [=(2)] =   -1.82 kcal/mol
DOCKED: USER    
DOCKED: USER    
DOCKED: USER    NEWDPF move ligand.dum.pdbqt
DOCKED: USER    NEWDPF about 1.619000 0.086000 0.013000
DOCKED: USER    NEWDPF tran0 37.470792 17.204155 122.624376
DOCKED: USER    NEWDPF quaternion0 -0.153816 -0.735326 0.301214 0.587287
DOCKED: USER    NEWDPF axisangle0 -0.190042 -0.908507 0.372154 108.070565
DOCKED: USER    NEWDPF quat0 -0.190042 -0.908507 0.372154 108.070565
DOCKED: USER    NEWDPF dihe0 -161.17 -51.70 173.34 170.33 151.97 -180.00 113.31 -83.63 97.05 
DOCKED: USER  keepresnum = 1 
DOCKED: USER  
DOCKED: REMARK  Name = 
DOCKED: REMARK  11 active torsions:
DOCKED: REMARK  status: ('A' for Active; 'I' for Inactive)
DOCKED: REMARK    1  A    between atoms: C_2  and  O_3
DOCKED: REMARK    2  A    between atoms: O_3  and  C_4
DOCKED: REMARK    3  A    between atoms: C_4  and  C_5
DOCKED: REMARK    4  A    between atoms: C_10  and  C_11
DOCKED: REMARK    5  A    between atoms: C_11  and  N_12
DOCKED: REMARK    6  A    between atoms: N_12  and  C_13
DOCKED: REMARK    7  A    between atoms: N_12  and  C_15
DOCKED: REMARK    8  A    between atoms: C_13  and  C_14
DOCKED: REMARK    9  A    between atoms: C_15  and  C_16
DOCKED: REMARK   10  A    between atoms: N_21  and  C_22
DOCKED: REMARK   11  A    between atoms: C_25  and  C_26
DOCKED: REMARK                            x       y       z     vdW  Elec       q    Type
DOCKED: REMARK                         _______ _______ _______ _____ _____    ______ ____
DOCKED: USER                              x       y       z     vdW  Elec       q    Type
DOCKED: USER                           _______ _______ _______ _____ _____    ______ ____
DOCKED: ROOT
DOCKED: ATOM      1  C   UNL     1      35.379  18.370 122.670 -0.28 -0.00    +0.000 C 
DOCKED: ENDROOT
DOCKED: BRANCH   1   2
DOCKED: ATOM      2  C   UNL     1      35.962  18.510 124.046 -0.21 -0.00    +0.000 A 
DOCKED: ATOM      3  C   UNL     1      35.127  18.626 125.167 -0.24 -0.00    +0.000 A 
DOCKED: ATOM      4  C   UNL     1      35.674  18.774 126.446 -0.16 -0.00    +0.000 A 
DOCKED: ATOM      5  C   UNL     1      37.065  18.823 126.617 -0.09 -0.00    +0.000 A 
DOCKED: ATOM      6  C   UNL     1      37.623  18.981 127.895 -0.13 -0.00    +0.000 A 
DOCKED: ATOM      7  C   UNL     1      39.015  19.064 128.058 -0.17 -0.00    +0.000 A 
DOCKED: ATOM      8  C   UNL     1      39.850  18.945 126.935 -0.22 -0.00    +0.000 A 
DOCKED: ATOM      9  C   UNL     1      39.303  18.779 125.659 -0.19 -0.00    +0.000 A 
DOCKED: ATOM     10  C   UNL     1      37.912  18.722 125.488 -0.14 -0.00    +0.000 A 
DOCKED: ATOM     11  C   UNL     1      37.355  18.565 124.210 -0.16 -0.00    +0.000 A 
DOCKED: ATOM     12  CM  UNL     1      36.515  18.670 125.329 -0.05 -0.00    +0.000 AC
DOCKED: ATOM     13  CM  UNL     1      38.462  18.886 126.775 +0.00 -0.00    +0.000 AC
DOCKED: BRANCH   7  12
DOCKED: ATOM     14  C   UNL     1      39.608  19.223 129.435 -0.15 -0.00    +0.000 C 
DOCKED: BRANCH  12  13
DOCKED: ATOM     15  N   UNL     1      40.123  17.932 129.942 -0.28 -0.00    +0.000 N 
DOCKED: ATOM     16  H   UNL     1      39.914  17.995 130.940 -0.01 -0.00    +0.000 HD
DOCKED: BRANCH  13  15
DOCKED: ATOM     17  C   UNL     1      39.366  16.750 129.478 -0.32 -0.00    +0.000 C 
DOCKED: ATOM     18  C   UNL     1      38.193  16.374 130.387 -0.35 -0.00    +0.000 C 
DOCKED: ENDBRANCH  13  15
DOCKED: BRANCH  13  17
DOCKED: ATOM     19  C   UNL     1      41.598  17.764 129.972 -0.38 -0.00    +0.000 C 
DOCKED: ATOM     20  C   UNL     1      42.198  17.099 128.725 -0.52 -0.00    +0.000 C 
DOCKED: ENDBRANCH  13  17
DOCKED: ENDBRANCH  12  13
DOCKED: ENDBRANCH   7  12
DOCKED: ENDBRANCH   1   2
DOCKED: BRANCH   1  19
DOCKED: ATOM     21  O   UNL     1      36.319  17.713 121.826 -0.19 -0.00    +0.000 OA
DOCKED: BRANCH  19  21
DOCKED: ATOM     22  O   UNL     1      36.048  15.873 120.462 -0.08 -0.00    +0.000 OA
DOCKED: ATOM     23  C   UNL     1      36.306  16.333 121.609 -0.23 -0.00    +0.000 C 
DOCKED: ATOM     24  N   UNL     1      36.542  15.451 122.715 -0.33 -0.00    +0.000 N 
DOCKED: ATOM     25  H   UNL     1      36.621  15.850 123.613 -0.02 -0.00    +0.000 HD
DOCKED: BRANCH  22  24
DOCKED: ATOM     26  C   UNL     1      36.674  14.025 122.602 -0.40 -0.00    +0.000 A 
DOCKED: ATOM     27  C   UNL     1      37.289  13.478 121.467 -0.39 -0.00    +0.000 A 
DOCKED: ATOM     28  C   UNL     1      37.407  12.094 121.318 -0.44 -0.00    +0.000 A 
DOCKED: ATOM     29  C   UNL     1      36.889  11.225 122.296 -0.53 -0.00    +0.000 A 
DOCKED: ATOM     30  C   UNL     1      36.266  11.775 123.430 -0.62 -0.00    +0.000 A 
DOCKED: ATOM     31  C   UNL     1      36.150  13.160 123.577 -0.54 -0.00    +0.000 A 
DOCKED: ATOM     32  CM  UNL     1      36.779  12.626 122.449 +0.00 -0.00    +0.000 AC
DOCKED: BRANCH  27  30
DOCKED: ATOM     33  C   UNL     1      37.002   9.751 122.155 -0.60 -0.00    +0.000 C 
DOCKED: ATOM     34  N   UNL     1      37.068   8.894 123.300 -0.64 -0.00    +0.000 N 
DOCKED: ATOM     35  O   UNL     1      37.066   7.550 123.145 -2.45 -0.00    +0.000 OA
DOCKED: ATOM     36  O   UNL     1      37.055   9.239 121.003 -2.71 -0.00    +0.000 OA
DOCKED: ATOM     37  H   UNL     1      37.115   9.284 124.202 -0.59 -0.00    +0.000 HD
DOCKED: ENDBRANCH  27  30
DOCKED: ENDBRANCH  22  24
DOCKED: ENDBRANCH  19  21
DOCKED: ENDBRANCH   1  19
DOCKED: TORSDOF 9DOCKED: TER
DOCKED: ENDMDL
________________________________________________________________________________


	BEGINNING GENETIC ALGORITHM DOCKING 43 of 100
Run: 43 Seed: 83674085 272110371 [ Run 43 of 100 GA/GALS ]
Beginning LAMARCKIAN GENETIC ALGORITHM (LGA), with a maximum of 2500000 energy evaluations.

Final-Value: -17.368


	FINAL GENETIC ALGORITHM DOCKED STATE
	_______________________________________________


Detailed state:  trans 35.744 15.985 123.508 quatxyzw 0.278765 -0.367108 0.813356 -0.354927 center 1.619 0.086 0.013 ntor 9 -127.5344 141.2755 171.5136 132.4425 -26.0156 -95.2351 -113.9456 161.5681 170.8372
State:	 35.744  15.985 123.508   0.298 -0.393  0.870 -138.422   -127.53  141.28  171.51  132.44  -26.02  -95.24 -113.95  161.57  170.84

DOCKED: MODEL       43
DOCKED: USER    Run = 43
DOCKED: USER    DPF = ligand_dock.biased.dpf
DOCKED: USER  
DOCKED: USER    Estimated Free Energy of Binding    =  -12.34 kcal/mol  [=(1)+(2)+(3)-(4)]
DOCKED: USER    Estimated Inhibition Constant, Ki   =  896.78 pM (picomolar)  [Temperature = 298.15 K]
DOCKED: USER    
DOCKED: USER    (1) Final Intermolecular Energy     =  -15.03 kcal/mol
DOCKED: USER        vdW + Hbond + desolv Energy     =  -15.03 kcal/mol
DOCKED: USER        Electrostatic Energy            =   +0.00 kcal/mol
DOCKED: USER    (2) Final Total Internal Energy     =   -2.34 kcal/mol
DOCKED: USER    (3) Torsional Free Energy           =   +2.68 kcal/mol
DOCKED: USER    (4) Unbound System's Energy  [=(2)] =   -2.34 kcal/mol
DOCKED: USER    
DOCKED: USER    
DOCKED: USER    NEWDPF move ligand.dum.pdbqt
DOCKED: USER    NEWDPF about 1.619000 0.086000 0.013000
DOCKED: USER    NEWDPF tran0 35.744059 15.985478 123.507994
DOCKED: USER    NEWDPF quaternion0 0.278765 -0.367108 0.813356 -0.354927
DOCKED: USER    NEWDPF axisangle0 0.298178 -0.392673 0.869999 -138.422012
DOCKED: USER    NEWDPF quat0 0.298178 -0.392673 0.869999 -138.422012
DOCKED: USER    NEWDPF dihe0 -127.53 141.28 171.51 132.44 -26.02 -95.24 -113.95 161.57 170.84 
DOCKED: USER  keepresnum = 1 
DOCKED: USER  
DOCKED: REMARK  Name = 
DOCKED: REMARK  11 active torsions:
DOCKED: REMARK  status: ('A' for Active; 'I' for Inactive)
DOCKED: REMARK    1  A    between atoms: C_2  and  O_3
DOCKED: REMARK    2  A    between atoms: O_3  and  C_4
DOCKED: REMARK    3  A    between atoms: C_4  and  C_5
DOCKED: REMARK    4  A    between atoms: C_10  and  C_11
DOCKED: REMARK    5  A    between atoms: C_11  and  N_12
DOCKED: REMARK    6  A    between atoms: N_12  and  C_13
DOCKED: REMARK    7  A    between atoms: N_12  and  C_15
DOCKED: REMARK    8  A    between atoms: C_13  and  C_14
DOCKED: REMARK    9  A    between atoms: C_15  and  C_16
DOCKED: REMARK   10  A    between atoms: N_21  and  C_22
DOCKED: REMARK   11  A    between atoms: C_25  and  C_26
DOCKED: REMARK                            x       y       z     vdW  Elec       q    Type
DOCKED: REMARK                         _______ _______ _______ _____ _____    ______ ____
DOCKED: USER                              x       y       z     vdW  Elec       q    Type
DOCKED: USER                           _______ _______ _______ _____ _____    ______ ____
DOCKED: ROOT
DOCKED: ATOM      1  C   UNL     1      35.334  18.140 122.545 -0.30 -0.00    +0.000 C 
DOCKED: ENDROOT
DOCKED: BRANCH   1   2
DOCKED: ATOM      2  C   UNL     1      36.185  17.398 121.555 -0.19 -0.00    +0.000 A 
DOCKED: ATOM      3  C   UNL     1      37.560  17.231 121.778 -0.13 -0.00    +0.000 A 
DOCKED: ATOM      4  C   UNL     1      38.352  16.555 120.845 -0.12 -0.00    +0.000 A 
DOCKED: ATOM      5  C   UNL     1      37.780  16.049 119.668 -0.15 -0.00    +0.000 A 
DOCKED: ATOM      6  C   UNL     1      38.569  15.377 118.722 -0.16 -0.00    +0.000 A 
DOCKED: ATOM      7  C   UNL     1      37.999  14.903 117.529 -0.21 -0.00    +0.000 A 
DOCKED: ATOM      8  C   UNL     1      36.622  15.068 117.309 -0.22 -0.00    +0.000 A 
DOCKED: ATOM      9  C   UNL     1      35.827  15.729 118.250 -0.13 -0.00    +0.000 A 
DOCKED: ATOM     10  C   UNL     1      36.397  16.227 119.430 -0.15 -0.00    +0.000 A 
DOCKED: ATOM     11  C   UNL     1      35.608  16.899 120.376 -0.06 -0.00    +0.000 A 
DOCKED: ATOM     12  CM  UNL     1      36.981  16.726 120.609 +0.00 -0.00    +0.000 AC
DOCKED: ATOM     13  CM  UNL     1      37.199  15.559 118.484 +0.00 -0.00    +0.000 AC
DOCKED: BRANCH   7  12
DOCKED: ATOM     14  C   UNL     1      38.851  14.172 116.522 -0.23 -0.00    +0.000 C 
DOCKED: BRANCH  12  13
DOCKED: ATOM     15  N   UNL     1      39.686  15.117 115.749 -0.28 -0.00    +0.000 N 
DOCKED: ATOM     16  H   UNL     1      40.225  14.488 115.153 -0.04 -0.00    +0.000 HD
DOCKED: BRANCH  13  15
DOCKED: ATOM     17  C   UNL     1      38.930  15.967 114.805 -0.18 -0.00    +0.000 C 
DOCKED: ATOM     18  C   UNL     1      38.073  15.175 113.815 -0.21 -0.00    +0.000 C 
DOCKED: ENDBRANCH  13  15
DOCKED: BRANCH  13  17
DOCKED: ATOM     19  C   UNL     1      40.775  15.808 116.488 -0.26 -0.00    +0.000 C 
DOCKED: ATOM     20  C   UNL     1      42.171  15.200 116.295 -0.27 -0.00    +0.000 C 
DOCKED: ENDBRANCH  13  17
DOCKED: ENDBRANCH  12  13
DOCKED: ENDBRANCH   7  12
DOCKED: ENDBRANCH   1   2
DOCKED: BRANCH   1  19
DOCKED: ATOM     21  O   UNL     1      34.990  17.267 123.615 -0.37 -0.00    +0.000 OA
DOCKED: BRANCH  19  21
DOCKED: ATOM     22  O   UNL     1      33.971  15.199 123.540 -0.64 -0.00    +0.000 OA
DOCKED: ATOM     23  C   UNL     1      35.036  15.875 123.501 -0.49 -0.00    +0.000 C 
DOCKED: ATOM     24  N   UNL     1      36.311  15.228 123.387 -0.42 -0.00    +0.000 N 
DOCKED: ATOM     25  H   UNL     1      37.119  15.783 123.481 -0.02 -0.00    +0.000 HD
DOCKED: BRANCH  22  24
DOCKED: ATOM     26  C   UNL     1      36.488  13.822 123.144 -0.48 -0.00    +0.000 A 
DOCKED: ATOM     27  C   UNL     1      37.172  13.403 121.994 -0.43 -0.00    +0.000 A 
DOCKED: ATOM     28  C   UNL     1      37.336  12.043 121.719 -0.43 -0.00    +0.000 A 
DOCKED: ATOM     29  C   UNL     1      36.797  11.071 122.582 -0.57 -0.00    +0.000 A 
DOCKED: ATOM     30  C   UNL     1      36.105  11.493 123.732 -0.59 -0.00    +0.000 A 
DOCKED: ATOM     31  C   UNL     1      35.943  12.855 124.005 -0.43 -0.00    +0.000 A 
DOCKED: ATOM     32  CM  UNL     1      36.640  12.447 122.863 +0.00 -0.00    +0.000 AC
DOCKED: BRANCH  27  30
DOCKED: ATOM     33  C   UNL     1      36.958   9.621 122.307 -0.63 -0.00    +0.000 C 
DOCKED: ATOM     34  N   UNL     1      37.032   8.662 123.368 -0.66 -0.00    +0.000 N 
DOCKED: ATOM     35  O   UNL     1      37.075   7.340 123.088 -2.32 -0.00    +0.000 OA
DOCKED: ATOM     36  O   UNL     1      37.046   9.221 121.113 -2.73 -0.00    +0.000 OA
DOCKED: ATOM     37  H   UNL     1      37.053   8.968 124.303 -0.53 -0.00    +0.000 HD
DOCKED: ENDBRANCH  27  30
DOCKED: ENDBRANCH  22  24
DOCKED: ENDBRANCH  19  21
DOCKED: ENDBRANCH   1  19
DOCKED: TORSDOF 9DOCKED: TER
DOCKED: ENDMDL
________________________________________________________________________________


	BEGINNING GENETIC ALGORITHM DOCKING 44 of 100
Run: 44 Seed: 1033562913 1225536664 [ Run 44 of 100 GA/GALS ]
Beginning LAMARCKIAN GENETIC ALGORITHM (LGA), with a maximum of 2500000 energy evaluations.

Final-Value: -16.524


	FINAL GENETIC ALGORITHM DOCKED STATE
	_______________________________________________


Detailed state:  trans 37.995 16.837 121.136 quatxyzw 0.110941 0.921719 -0.369976 -0.035278 center 1.619 0.086 0.013 ntor 9 90.0129 89.7441 158.4952 -174.7052 -17.1200 174.2519 -159.6417 -111.5244 104.8986
State:	 37.995  16.837 121.136   0.111  0.922 -0.370 -175.957     90.01   89.74  158.50 -174.71  -17.12  174.25 -159.64 -111.52  104.90

DOCKED: MODEL       44
DOCKED: USER    Run = 44
DOCKED: USER    DPF = ligand_dock.biased.dpf
DOCKED: USER  
DOCKED: USER    Estimated Free Energy of Binding    =  -12.08 kcal/mol  [=(1)+(2)+(3)-(4)]
DOCKED: USER    Estimated Inhibition Constant, Ki   =    1.39 nM (nanomolar)  [Temperature = 298.15 K]
DOCKED: USER    
DOCKED: USER    (1) Final Intermolecular Energy     =  -14.77 kcal/mol
DOCKED: USER        vdW + Hbond + desolv Energy     =  -14.77 kcal/mol
DOCKED: USER        Electrostatic Energy            =   +0.00 kcal/mol
DOCKED: USER    (2) Final Total Internal Energy     =   -1.76 kcal/mol
DOCKED: USER    (3) Torsional Free Energy           =   +2.68 kcal/mol
DOCKED: USER    (4) Unbound System's Energy  [=(2)] =   -1.76 kcal/mol
DOCKED: USER    
DOCKED: USER    
DOCKED: USER    NEWDPF move ligand.dum.pdbqt
DOCKED: USER    NEWDPF about 1.619000 0.086000 0.013000
DOCKED: USER    NEWDPF tran0 37.995398 16.837178 121.136456
DOCKED: USER    NEWDPF quaternion0 0.110941 0.921719 -0.369976 -0.035278
DOCKED: USER    NEWDPF axisangle0 0.111010 0.922293 -0.370207 -175.956641
DOCKED: USER    NEWDPF quat0 0.111010 0.922293 -0.370207 -175.956641
DOCKED: USER    NEWDPF dihe0 90.01 89.74 158.50 -174.71 -17.12 174.25 -159.64 -111.52 104.90 
DOCKED: USER  keepresnum = 1 
DOCKED: USER  
DOCKED: REMARK  Name = 
DOCKED: REMARK  11 active torsions:
DOCKED: REMARK  status: ('A' for Active; 'I' for Inactive)
DOCKED: REMARK    1  A    between atoms: C_2  and  O_3
DOCKED: REMARK    2  A    between atoms: O_3  and  C_4
DOCKED: REMARK    3  A    between atoms: C_4  and  C_5
DOCKED: REMARK    4  A    between atoms: C_10  and  C_11
DOCKED: REMARK    5  A    between atoms: C_11  and  N_12
DOCKED: REMARK    6  A    between atoms: N_12  and  C_13
DOCKED: REMARK    7  A    between atoms: N_12  and  C_15
DOCKED: REMARK    8  A    between atoms: C_13  and  C_14
DOCKED: REMARK    9  A    between atoms: C_15  and  C_16
DOCKED: REMARK   10  A    between atoms: N_21  and  C_22
DOCKED: REMARK   11  A    between atoms: C_25  and  C_26
DOCKED: REMARK                            x       y       z     vdW  Elec       q    Type
DOCKED: REMARK                         _______ _______ _______ _____ _____    ______ ____
DOCKED: USER                              x       y       z     vdW  Elec       q    Type
DOCKED: USER                           _______ _______ _______ _____ _____    ______ ____
DOCKED: ROOT
DOCKED: ATOM      1  C   UNL     1      37.612  18.291 123.001 -0.15 -0.00    +0.000 C 
DOCKED: ENDROOT
DOCKED: BRANCH   1   2
DOCKED: ATOM      2  C   UNL     1      39.076  17.957 123.029 -0.14 -0.00    +0.000 A 
DOCKED: ATOM      3  C   UNL     1      39.739  17.751 124.248 -0.22 -0.00    +0.000 A 
DOCKED: ATOM      4  C   UNL     1      41.106  17.459 124.270 -0.29 -0.00    +0.000 A 
DOCKED: ATOM      5  C   UNL     1      41.831  17.383 123.072 -0.29 -0.00    +0.000 A 
DOCKED: ATOM      6  C   UNL     1      43.205  17.099 123.085 -0.33 -0.00    +0.000 A 
DOCKED: ATOM      7  C   UNL     1      43.935  17.058 121.885 -0.27 -0.00    +0.000 A 
DOCKED: ATOM      8  C   UNL     1      43.269  17.261 120.666 -0.14 -0.00    +0.000 A 
DOCKED: ATOM      9  C   UNL     1      41.898  17.536 120.643 -0.10 -0.00    +0.000 A 
DOCKED: ATOM     10  C   UNL     1      41.171  17.604 121.840 -0.13 -0.00    +0.000 A 
DOCKED: ATOM     11  C   UNL     1      39.797  17.889 121.827 -0.09 -0.00    +0.000 A 
DOCKED: ATOM     12  CM  UNL     1      40.453  17.674 123.048 +0.00 -0.00    +0.000 AC
DOCKED: ATOM     13  CM  UNL     1      42.552  17.324 121.865 +0.00 -0.00    +0.000 AC
DOCKED: BRANCH   7  12
DOCKED: ATOM     14  C   UNL     1      45.408  16.741 121.906 -0.30 +0.00    +0.000 C 
DOCKED: BRANCH  12  13
DOCKED: ATOM     15  N   UNL     1      46.176  17.833 122.546 -0.26 -0.00    +0.000 N 
DOCKED: ATOM     16  H   UNL     1      46.909  18.010 121.858 +0.00 -0.00    +0.000 HD
DOCKED: BRANCH  13  15
DOCKED: ATOM     17  C   UNL     1      45.444  19.113 122.646 -0.19 -0.00    +0.000 C 
DOCKED: ATOM     18  C   UNL     1      46.045  20.088 123.662 -0.19 -0.00    +0.000 C 
DOCKED: ENDBRANCH  13  15
DOCKED: BRANCH  13  17
DOCKED: ATOM     19  C   UNL     1      46.986  17.474 123.738 -0.41 -0.00    +0.000 C 
DOCKED: ATOM     20  C   UNL     1      47.865  16.227 123.569 -0.49 +0.00    +0.000 C 
DOCKED: ENDBRANCH  13  17
DOCKED: ENDBRANCH  12  13
DOCKED: ENDBRANCH   7  12
DOCKED: ENDBRANCH   1   2
DOCKED: BRANCH   1  19
DOCKED: ATOM     21  O   UNL     1      37.025  17.730 121.832 -0.15 -0.00    +0.000 OA
DOCKED: BRANCH  19  21
DOCKED: ATOM     22  O   UNL     1      36.772  15.894 120.459 -0.22 -0.00    +0.000 OA
DOCKED: ATOM     23  C   UNL     1      36.914  16.352 121.627 -0.22 -0.00    +0.000 C 
DOCKED: ATOM     24  N   UNL     1      36.917  15.477 122.762 -0.33 -0.00    +0.000 N 
DOCKED: ATOM     25  H   UNL     1      36.909  15.885 123.658 -0.02 -0.00    +0.000 HD
DOCKED: BRANCH  22  24
DOCKED: ATOM     26  C   UNL     1      36.930  14.042 122.680 -0.43 -0.00    +0.000 A 
DOCKED: ATOM     27  C   UNL     1      37.537  13.421 121.579 -0.41 -0.00    +0.000 A 
DOCKED: ATOM     28  C   UNL     1      37.542  12.029 121.460 -0.31 -0.00    +0.000 A 
DOCKED: ATOM     29  C   UNL     1      36.917  11.227 122.433 -0.53 -0.00    +0.000 A 
DOCKED: ATOM     30  C   UNL     1      36.303  11.852 123.534 -0.63 -0.00    +0.000 A 
DOCKED: ATOM     31  C   UNL     1      36.300  13.245 123.650 -0.53 -0.00    +0.000 A 
DOCKED: ATOM     32  CM  UNL     1      36.921  12.636 122.556 +0.00 -0.00    +0.000 AC
DOCKED: BRANCH  27  30
DOCKED: ATOM     33  C   UNL     1      36.909   9.747 122.323 -0.63 -0.00    +0.000 C 
DOCKED: ATOM     34  N   UNL     1      37.175   8.912 123.456 -0.57 -0.00    +0.000 N 
DOCKED: ATOM     35  O   UNL     1      37.060   7.569 123.353 -2.55 -0.00    +0.000 OA
DOCKED: ATOM     36  O   UNL     1      36.677   9.208 121.207 -2.61 -0.00    +0.000 OA
DOCKED: ATOM     37  H   UNL     1      37.443   9.318 124.312 -0.64 -0.00    +0.000 HD
DOCKED: ENDBRANCH  27  30
DOCKED: ENDBRANCH  22  24
DOCKED: ENDBRANCH  19  21
DOCKED: ENDBRANCH   1  19
DOCKED: TORSDOF 9DOCKED: TER
DOCKED: ENDMDL
________________________________________________________________________________


	BEGINNING GENETIC ALGORITHM DOCKING 45 of 100
Run: 45 Seed: 1354068696 107248973 [ Run 45 of 100 GA/GALS ]
Beginning LAMARCKIAN GENETIC ALGORITHM (LGA), with a maximum of 2500000 energy evaluations.

Final-Value: -16.042


	FINAL GENETIC ALGORITHM DOCKED STATE
	_______________________________________________


Detailed state:  trans 38.294 17.077 122.980 quatxyzw -0.138237 -0.722376 0.390460 0.553718 center 1.619 0.086 0.013 ntor 9 -134.6014 180.0000 3.0710 157.5737 160.6018 164.3644 -50.8119 -102.1773 98.3531
State:	 38.294  17.077 122.980  -0.166 -0.868  0.469 112.755   -134.60  180.00    3.07  157.57  160.60  164.36  -50.81 -102.18   98.35

DOCKED: MODEL       45
DOCKED: USER    Run = 45
DOCKED: USER    DPF = ligand_dock.biased.dpf
DOCKED: USER  
DOCKED: USER    Estimated Free Energy of Binding    =  -11.81 kcal/mol  [=(1)+(2)+(3)-(4)]
DOCKED: USER    Estimated Inhibition Constant, Ki   =    2.21 nM (nanomolar)  [Temperature = 298.15 K]
DOCKED: USER    
DOCKED: USER    (1) Final Intermolecular Energy     =  -14.49 kcal/mol
DOCKED: USER        vdW + Hbond + desolv Energy     =  -14.49 kcal/mol
DOCKED: USER        Electrostatic Energy            =   +0.00 kcal/mol
DOCKED: USER    (2) Final Total Internal Energy     =   -1.55 kcal/mol
DOCKED: USER    (3) Torsional Free Energy           =   +2.68 kcal/mol
DOCKED: USER    (4) Unbound System's Energy  [=(2)] =   -1.55 kcal/mol
DOCKED: USER    
DOCKED: USER    
DOCKED: USER    NEWDPF move ligand.dum.pdbqt
DOCKED: USER    NEWDPF about 1.619000 0.086000 0.013000
DOCKED: USER    NEWDPF tran0 38.293503 17.077344 122.980235
DOCKED: USER    NEWDPF quaternion0 -0.138237 -0.722376 0.390460 0.553718
DOCKED: USER    NEWDPF axisangle0 -0.166010 -0.867507 0.468906 112.755043
DOCKED: USER    NEWDPF quat0 -0.166010 -0.867507 0.468906 112.755043
DOCKED: USER    NEWDPF dihe0 -134.60 180.00 3.07 157.57 160.60 164.36 -50.81 -102.18 98.35 
DOCKED: USER  keepresnum = 1 
DOCKED: USER  
DOCKED: REMARK  Name = 
DOCKED: REMARK  11 active torsions:
DOCKED: REMARK  status: ('A' for Active; 'I' for Inactive)
DOCKED: REMARK    1  A    between atoms: C_2  and  O_3
DOCKED: REMARK    2  A    between atoms: O_3  and  C_4
DOCKED: REMARK    3  A    between atoms: C_4  and  C_5
DOCKED: REMARK    4  A    between atoms: C_10  and  C_11
DOCKED: REMARK    5  A    between atoms: C_11  and  N_12
DOCKED: REMARK    6  A    between atoms: N_12  and  C_13
DOCKED: REMARK    7  A    between atoms: N_12  and  C_15
DOCKED: REMARK    8  A    between atoms: C_13  and  C_14
DOCKED: REMARK    9  A    between atoms: C_15  and  C_16
DOCKED: REMARK   10  A    between atoms: N_21  and  C_22
DOCKED: REMARK   11  A    between atoms: C_25  and  C_26
DOCKED: REMARK                            x       y       z     vdW  Elec       q    Type
DOCKED: REMARK                         _______ _______ _______ _____ _____    ______ ____
DOCKED: USER                              x       y       z     vdW  Elec       q    Type
DOCKED: USER                           _______ _______ _______ _____ _____    ______ ____
DOCKED: ROOT
DOCKED: ATOM      1  C   UNL     1      36.339  18.462 122.981 -0.21 -0.00    +0.000 C 
DOCKED: ENDROOT
DOCKED: BRANCH   1   2
DOCKED: ATOM      2  C   UNL     1      37.040  18.732 124.282 -0.16 -0.00    +0.000 A 
DOCKED: ATOM      3  C   UNL     1      36.308  19.072 125.430 -0.16 -0.00    +0.000 A 
DOCKED: ATOM      4  C   UNL     1      36.966  19.339 126.635 -0.12 -0.00    +0.000 A 
DOCKED: ATOM      5  C   UNL     1      38.366  19.284 126.702 -0.14 -0.00    +0.000 A 
DOCKED: ATOM      6  C   UNL     1      39.035  19.560 127.905 -0.12 -0.00    +0.000 A 
DOCKED: ATOM      7  C   UNL     1      40.438  19.538 127.960 -0.16 -0.00    +0.000 A 
DOCKED: ATOM      8  C   UNL     1      41.168  19.195 126.810 -0.25 -0.00    +0.000 A 
DOCKED: ATOM      9  C   UNL     1      40.509  18.910 125.610 -0.24 -0.00    +0.000 A 
DOCKED: ATOM     10  C   UNL     1      39.110  18.957 125.544 -0.17 -0.00    +0.000 A 
DOCKED: ATOM     11  C   UNL     1      38.441  18.681 124.342 -0.15 -0.00    +0.000 A 
DOCKED: ATOM     12  CM  UNL     1      37.705  19.011 125.490 +0.00 -0.00    +0.000 AC
DOCKED: ATOM     13  CM  UNL     1      39.771  19.241 126.755 +0.00 -0.00    +0.000 AC
DOCKED: BRANCH   7  12
DOCKED: ATOM     14  C   UNL     1      41.149  19.825 129.258 -0.13 -0.00    +0.000 C 
DOCKED: BRANCH  12  13
DOCKED: ATOM     15  N   UNL     1      41.776  18.600 129.801 -0.25 -0.00    +0.000 N 
DOCKED: ATOM     16  H   UNL     1      41.859  18.823 130.793 +0.00 -0.00    +0.000 HD
DOCKED: BRANCH  13  15
DOCKED: ATOM     17  C   UNL     1      40.908  17.403 129.761 -0.35 -0.00    +0.000 C 
DOCKED: ATOM     18  C   UNL     1      39.638  17.535 130.605 -0.26 -0.00    +0.000 C 
DOCKED: ENDBRANCH  13  15
DOCKED: BRANCH  13  17
DOCKED: ATOM     19  C   UNL     1      43.198  18.360 129.445 -0.39 -0.00    +0.000 C 
DOCKED: ATOM     20  C   UNL     1      44.072  17.842 130.595 -0.38 -0.00    +0.000 C 
DOCKED: ENDBRANCH  13  17
DOCKED: ENDBRANCH  12  13
DOCKED: ENDBRANCH   7  12
DOCKED: ENDBRANCH   1   2
DOCKED: BRANCH   1  19
DOCKED: ATOM     21  O   UNL     1      37.140  17.592 122.189 -0.16 -0.00    +0.000 OA
DOCKED: BRANCH  19  21
DOCKED: ATOM     22  O   UNL     1      37.510  15.809 123.605 -0.38 -0.00    +0.000 OA
DOCKED: ATOM     23  C   UNL     1      37.246  16.221 122.442 -0.27 -0.00    +0.000 C 
DOCKED: ATOM     24  N   UNL     1      37.099  15.299 121.354 -0.25 -0.00    +0.000 N 
DOCKED: ATOM     25  H   UNL     1      37.013  15.669 120.445 -0.00 -0.00    +0.000 HD
DOCKED: BRANCH  22  24
DOCKED: ATOM     26  C   UNL     1      37.067  13.870 121.501 -0.33 -0.00    +0.000 A 
DOCKED: ATOM     27  C   UNL     1      36.776  13.313 122.755 -0.49 -0.00    +0.000 A 
DOCKED: ATOM     28  C   UNL     1      36.764  11.928 122.933 -0.59 -0.00    +0.000 A 
DOCKED: ATOM     29  C   UNL     1      37.066  11.068 121.861 -0.46 -0.00    +0.000 A 
DOCKED: ATOM     30  C   UNL     1      37.364  11.628 120.606 -0.38 -0.00    +0.000 A 
DOCKED: ATOM     31  C   UNL     1      37.374  13.015 120.430 -0.43 -0.00    +0.000 A 
DOCKED: ATOM     32  CM  UNL     1      37.069  12.470 121.681 +0.00 -0.00    +0.000 AC
DOCKED: BRANCH  27  30
DOCKED: ATOM     33  C   UNL     1      37.061   9.593 122.031 -0.60 -0.00    +0.000 C 
DOCKED: ATOM     34  N   UNL     1      37.156   8.989 123.326 -0.59 -0.00    +0.000 N 
DOCKED: ATOM     35  O   UNL     1      37.046   7.648 123.461 -2.64 -0.00    +0.000 OA
DOCKED: ATOM     36  O   UNL     1      36.984   8.851 121.013 -2.68 -0.00    +0.000 OA
DOCKED: ATOM     37  H   UNL     1      37.304   9.552 124.119 -0.58 -0.00    +0.000 HD
DOCKED: ENDBRANCH  27  30
DOCKED: ENDBRANCH  22  24
DOCKED: ENDBRANCH  19  21
DOCKED: ENDBRANCH   1  19
DOCKED: TORSDOF 9DOCKED: TER
DOCKED: ENDMDL
________________________________________________________________________________


	BEGINNING GENETIC ALGORITHM DOCKING 46 of 100
Run: 46 Seed: 126660853 1289645958 [ Run 46 of 100 GA/GALS ]
Beginning LAMARCKIAN GENETIC ALGORITHM (LGA), with a maximum of 2500000 energy evaluations.

Final-Value: -16.746


	FINAL GENETIC ALGORITHM DOCKED STATE
	_______________________________________________


Detailed state:  trans 37.810 17.559 119.774 quatxyzw 0.945487 -0.185592 0.261376 -0.057382 center 1.619 0.086 0.013 ntor 9 134.4967 -74.6045 170.6034 161.5937 173.1042 83.9651 -157.7966 83.0801 -164.3595
State:	 37.810  17.559 119.774   0.947 -0.186  0.262 -173.421    134.50  -74.60  170.60  161.59  173.10   83.97 -157.80   83.08 -164.36

DOCKED: MODEL       46
DOCKED: USER    Run = 46
DOCKED: USER    DPF = ligand_dock.biased.dpf
DOCKED: USER  
DOCKED: USER    Estimated Free Energy of Binding    =  -12.43 kcal/mol  [=(1)+(2)+(3)-(4)]
DOCKED: USER    Estimated Inhibition Constant, Ki   =  775.28 pM (picomolar)  [Temperature = 298.15 K]
DOCKED: USER    
DOCKED: USER    (1) Final Intermolecular Energy     =  -15.11 kcal/mol
DOCKED: USER        vdW + Hbond + desolv Energy     =  -15.11 kcal/mol
DOCKED: USER        Electrostatic Energy            =   +0.00 kcal/mol
DOCKED: USER    (2) Final Total Internal Energy     =   -1.63 kcal/mol
DOCKED: USER    (3) Torsional Free Energy           =   +2.68 kcal/mol
DOCKED: USER    (4) Unbound System's Energy  [=(2)] =   -1.63 kcal/mol
DOCKED: USER    
DOCKED: USER    
DOCKED: USER    NEWDPF move ligand.dum.pdbqt
DOCKED: USER    NEWDPF about 1.619000 0.086000 0.013000
DOCKED: USER    NEWDPF tran0 37.810196 17.558946 119.773903
DOCKED: USER    NEWDPF quaternion0 0.945487 -0.185592 0.261376 -0.057382
DOCKED: USER    NEWDPF axisangle0 0.947048 -0.185898 0.261807 -173.420875
DOCKED: USER    NEWDPF quat0 0.947048 -0.185898 0.261807 -173.420875
DOCKED: USER    NEWDPF dihe0 134.50 -74.60 170.60 161.59 173.10 83.97 -157.80 83.08 -164.36 
DOCKED: USER  keepresnum = 1 
DOCKED: USER  
DOCKED: REMARK  Name = 
DOCKED: REMARK  11 active torsions:
DOCKED: REMARK  status: ('A' for Active; 'I' for Inactive)
DOCKED: REMARK    1  A    between atoms: C_2  and  O_3
DOCKED: REMARK    2  A    between atoms: O_3  and  C_4
DOCKED: REMARK    3  A    between atoms: C_4  and  C_5
DOCKED: REMARK    4  A    between atoms: C_10  and  C_11
DOCKED: REMARK    5  A    between atoms: C_11  and  N_12
DOCKED: REMARK    6  A    between atoms: N_12  and  C_13
DOCKED: REMARK    7  A    between atoms: N_12  and  C_15
DOCKED: REMARK    8  A    between atoms: C_13  and  C_14
DOCKED: REMARK    9  A    between atoms: C_15  and  C_16
DOCKED: REMARK   10  A    between atoms: N_21  and  C_22
DOCKED: REMARK   11  A    between atoms: C_25  and  C_26
DOCKED: REMARK                            x       y       z     vdW  Elec       q    Type
DOCKED: REMARK                         _______ _______ _______ _____ _____    ______ ____
DOCKED: USER                              x       y       z     vdW  Elec       q    Type
DOCKED: USER                           _______ _______ _______ _____ _____    ______ ____
DOCKED: ROOT
DOCKED: ATOM      1  C   UNL     1      37.109  18.228 121.965 -0.14 -0.00    +0.000 C 
DOCKED: ENDROOT
DOCKED: BRANCH   1   2
DOCKED: ATOM      2  C   UNL     1      35.982  18.589 121.040 -0.18 -0.00    +0.000 A 
DOCKED: ATOM      3  C   UNL     1      36.223  19.339 119.880 -0.12 -0.00    +0.000 A 
DOCKED: ATOM      4  C   UNL     1      35.167  19.688 119.031 -0.14 -0.00    +0.000 A 
DOCKED: ATOM      5  C   UNL     1      33.855  19.302 119.341 -0.23 -0.00    +0.000 A 
DOCKED: ATOM      6  C   UNL     1      32.789  19.656 118.500 -0.22 -0.00    +0.000 A 
DOCKED: ATOM      7  C   UNL     1      31.472  19.298 118.831 -0.33 -0.00    +0.000 A 
DOCKED: ATOM      8  C   UNL     1      31.234  18.544 119.991 -0.44 -0.00    +0.000 A 
DOCKED: ATOM      9  C   UNL     1      32.291  18.180 120.831 -0.30 -0.00    +0.000 A 
DOCKED: ATOM     10  C   UNL     1      33.604  18.558 120.517 -0.29 -0.00    +0.000 A 
DOCKED: ATOM     11  C   UNL     1      34.670  18.205 121.359 -0.29 -0.00    +0.000 A 
DOCKED: ATOM     12  CM  UNL     1      34.917  18.947 120.194 +0.00 -0.00    +0.000 AC
DOCKED: ATOM     13  CM  UNL     1      32.541  18.923 119.669 +0.00 -0.00    +0.000 AC
DOCKED: BRANCH   7  12
DOCKED: ATOM     14  C   UNL     1      30.333  19.672 117.917 -0.23 -0.00    +0.000 C 
DOCKED: BRANCH  12  13
DOCKED: ATOM     15  N   UNL     1      29.589  18.471 117.478 -0.18 -0.00    +0.000 N 
DOCKED: ATOM     16  H   UNL     1      29.205  18.773 116.582 +0.01 -0.00    +0.000 HD
DOCKED: BRANCH  13  15
DOCKED: ATOM     17  C   UNL     1      30.445  17.313 117.144 -0.23 -0.00    +0.000 C 
DOCKED: ATOM     18  C   UNL     1      29.817  16.356 116.128 -0.26 -0.00    +0.000 C 
DOCKED: ENDBRANCH  13  15
DOCKED: BRANCH  13  17
DOCKED: ATOM     19  C   UNL     1      28.347  18.142 118.223 -0.35 -0.00    +0.000 C 
DOCKED: ATOM     20  C   UNL     1      28.384  16.809 118.983 -0.53 -0.00    +0.000 C 
DOCKED: ENDBRANCH  13  17
DOCKED: ENDBRANCH  12  13
DOCKED: ENDBRANCH   7  12
DOCKED: ENDBRANCH   1   2
DOCKED: BRANCH   1  19
DOCKED: ATOM     21  O   UNL     1      38.109  17.525 121.234 -0.10 -0.00    +0.000 OA
DOCKED: BRANCH  19  21
DOCKED: ATOM     22  O   UNL     1      39.316  15.577 120.972 -0.24 -0.00    +0.000 OA
DOCKED: ATOM     23  C   UNL     1      38.216  16.132 121.246 -0.20 -0.00    +0.000 C 
DOCKED: ATOM     24  N   UNL     1      37.050  15.346 121.526 -0.25 -0.00    +0.000 N 
DOCKED: ATOM     25  H   UNL     1      36.189  15.816 121.616 -0.01 -0.00    +0.000 HD
DOCKED: BRANCH  22  24
DOCKED: ATOM     26  C   UNL     1      37.053  13.917 121.685 -0.34 -0.00    +0.000 A 
DOCKED: ATOM     27  C   UNL     1      37.465  13.107 120.618 -0.43 -0.00    +0.000 A 
DOCKED: ATOM     28  C   UNL     1      37.454  11.715 120.736 -0.43 -0.00    +0.000 A 
DOCKED: ATOM     29  C   UNL     1      37.007  11.103 121.922 -0.48 -0.00    +0.000 A 
DOCKED: ATOM     30  C   UNL     1      36.588  11.918 122.989 -0.60 -0.00    +0.000 A 
DOCKED: ATOM     31  C   UNL     1      36.601  13.310 122.868 -0.50 -0.00    +0.000 A 
DOCKED: ATOM     32  CM  UNL     1      37.028  12.511 121.803 +0.00 -0.00    +0.000 AC
DOCKED: BRANCH  27  30
DOCKED: ATOM     33  C   UNL     1      36.985   9.625 122.066 -0.62 -0.00    +0.000 C 
DOCKED: ATOM     34  N   UNL     1      37.196   8.995 123.334 -0.57 -0.00    +0.000 N 
DOCKED: ATOM     35  O   UNL     1      37.069   7.654 123.457 -2.65 -0.00    +0.000 OA
DOCKED: ATOM     36  O   UNL     1      36.790   8.904 121.049 -2.64 -0.00    +0.000 OA
DOCKED: ATOM     37  H   UNL     1      37.436   9.540 124.118 -0.59 -0.00    +0.000 HD
DOCKED: ENDBRANCH  27  30
DOCKED: ENDBRANCH  22  24
DOCKED: ENDBRANCH  19  21
DOCKED: ENDBRANCH   1  19
DOCKED: TORSDOF 9DOCKED: TER
DOCKED: ENDMDL
________________________________________________________________________________


	BEGINNING GENETIC ALGORITHM DOCKING 47 of 100
Run: 47 Seed: 1261847978 603076573 [ Run 47 of 100 GA/GALS ]
Beginning LAMARCKIAN GENETIC ALGORITHM (LGA), with a maximum of 2500000 energy evaluations.

Final-Value: -16.361


	FINAL GENETIC ALGORITHM DOCKED STATE
	_______________________________________________


Detailed state:  trans 36.370 16.604 122.944 quatxyzw -0.120162 0.901537 -0.402344 0.104458 center 1.619 0.086 0.013 ntor 9 44.3158 32.6440 -27.3136 -44.1713 178.3206 149.4916 75.1580 -101.7656 36.3458
State:	 36.370  16.604 122.944  -0.121  0.906 -0.405 168.008     44.32   32.64  -27.31  -44.17  178.32  149.49   75.16 -101.77   36.35

DOCKED: MODEL       47
DOCKED: USER    Run = 47
DOCKED: USER    DPF = ligand_dock.biased.dpf
DOCKED: USER  
DOCKED: USER    Estimated Free Energy of Binding    =  -12.31 kcal/mol  [=(1)+(2)+(3)-(4)]
DOCKED: USER    Estimated Inhibition Constant, Ki   =  955.34 pM (picomolar)  [Temperature = 298.15 K]
DOCKED: USER    
DOCKED: USER    (1) Final Intermolecular Energy     =  -14.99 kcal/mol
DOCKED: USER        vdW + Hbond + desolv Energy     =  -14.99 kcal/mol
DOCKED: USER        Electrostatic Energy            =   +0.00 kcal/mol
DOCKED: USER    (2) Final Total Internal Energy     =   -1.37 kcal/mol
DOCKED: USER    (3) Torsional Free Energy           =   +2.68 kcal/mol
DOCKED: USER    (4) Unbound System's Energy  [=(2)] =   -1.37 kcal/mol
DOCKED: USER    
DOCKED: USER    
DOCKED: USER    NEWDPF move ligand.dum.pdbqt
DOCKED: USER    NEWDPF about 1.619000 0.086000 0.013000
DOCKED: USER    NEWDPF tran0 36.369913 16.603649 122.943863
DOCKED: USER    NEWDPF quaternion0 -0.120162 0.901537 -0.402344 0.104458
DOCKED: USER    NEWDPF axisangle0 -0.120823 0.906496 -0.404557 168.008168
DOCKED: USER    NEWDPF quat0 -0.120823 0.906496 -0.404557 168.008168
DOCKED: USER    NEWDPF dihe0 44.32 32.64 -27.31 -44.17 178.32 149.49 75.16 -101.77 36.35 
DOCKED: USER  keepresnum = 1 
DOCKED: USER  
DOCKED: REMARK  Name = 
DOCKED: REMARK  11 active torsions:
DOCKED: REMARK  status: ('A' for Active; 'I' for Inactive)
DOCKED: REMARK    1  A    between atoms: C_2  and  O_3
DOCKED: REMARK    2  A    between atoms: O_3  and  C_4
DOCKED: REMARK    3  A    between atoms: C_4  and  C_5
DOCKED: REMARK    4  A    between atoms: C_10  and  C_11
DOCKED: REMARK    5  A    between atoms: C_11  and  N_12
DOCKED: REMARK    6  A    between atoms: N_12  and  C_13
DOCKED: REMARK    7  A    between atoms: N_12  and  C_15
DOCKED: REMARK    8  A    between atoms: C_13  and  C_14
DOCKED: REMARK    9  A    between atoms: C_15  and  C_16
DOCKED: REMARK   10  A    between atoms: N_21  and  C_22
DOCKED: REMARK   11  A    between atoms: C_25  and  C_26
DOCKED: REMARK                            x       y       z     vdW  Elec       q    Type
DOCKED: REMARK                         _______ _______ _______ _____ _____    ______ ____
DOCKED: USER                              x       y       z     vdW  Elec       q    Type
DOCKED: USER                           _______ _______ _______ _____ _____    ______ ____
DOCKED: ROOT
DOCKED: ATOM      1  C   UNL     1      36.343  18.106 124.809 -0.24 -0.00    +0.000 C 
DOCKED: ENDROOT
DOCKED: BRANCH   1   2
DOCKED: ATOM      2  C   UNL     1      37.713  18.219 124.205 -0.17 -0.00    +0.000 A 
DOCKED: ATOM      3  C   UNL     1      38.426  19.426 124.271 -0.10 -0.00    +0.000 A 
DOCKED: ATOM      4  C   UNL     1      39.694  19.532 123.691 -0.07 -0.00    +0.000 A 
DOCKED: ATOM      5  C   UNL     1      40.259  18.436 123.024 -0.13 -0.00    +0.000 A 
DOCKED: ATOM      6  C   UNL     1      41.527  18.536 122.431 -0.12 -0.00    +0.000 A 
DOCKED: ATOM      7  C   UNL     1      42.074  17.447 121.733 -0.17 -0.00    +0.000 A 
DOCKED: ATOM      8  C   UNL     1      41.361  16.239 121.671 -0.26 -0.00    +0.000 A 
DOCKED: ATOM      9  C   UNL     1      40.100  16.128 122.266 -0.27 -0.00    +0.000 A 
DOCKED: ATOM     10  C   UNL     1      39.539  17.221 122.940 -0.20 -0.00    +0.000 A 
DOCKED: ATOM     11  C   UNL     1      38.271  17.120 123.533 -0.21 -0.00    +0.000 A 
DOCKED: ATOM     12  CM  UNL     1      38.984  18.326 123.611 +0.00 -0.00    +0.000 AC
DOCKED: ATOM     13  CM  UNL     1      40.810  17.334 122.344 +0.00 -0.00    +0.000 AC
DOCKED: BRANCH   7  12
DOCKED: ATOM     14  C   UNL     1      43.442  17.559 121.108 -0.17 -0.00    +0.000 C 
DOCKED: BRANCH  12  13
DOCKED: ATOM     15  N   UNL     1      44.314  16.445 121.540 -0.28 -0.00    +0.000 N 
DOCKED: ATOM     16  H   UNL     1      43.692  15.907 122.144 -0.03 -0.00    +0.000 HD
DOCKED: BRANCH  13  15
DOCKED: ATOM     17  C   UNL     1      44.684  15.508 120.458 -0.29 +0.00    +0.000 C 
DOCKED: ATOM     18  C   UNL     1      46.184  15.474 120.158 -0.31 +0.00    +0.000 C 
DOCKED: ENDBRANCH  13  15
DOCKED: BRANCH  13  17
DOCKED: ATOM     19  C   UNL     1      45.409  16.779 122.487 -0.29 +0.00    +0.000 C 
DOCKED: ATOM     20  C   UNL     1      45.620  18.280 122.727 -0.26 -0.00    +0.000 C 
DOCKED: ENDBRANCH  13  17
DOCKED: ENDBRANCH  12  13
DOCKED: ENDBRANCH   7  12
DOCKED: ENDBRANCH   1   2
DOCKED: BRANCH   1  19
DOCKED: ATOM     21  O   UNL     1      35.541  17.256 123.997 -0.33 -0.00    +0.000 OA
DOCKED: BRANCH  19  21
DOCKED: ATOM     22  O   UNL     1      35.208  15.182 124.951 -0.53 -0.00    +0.000 OA
DOCKED: ATOM     23  C   UNL     1      35.672  15.864 123.996 -0.46 -0.00    +0.000 C 
DOCKED: ATOM     24  N   UNL     1      36.381  15.233 122.922 -0.37 -0.00    +0.000 N 
DOCKED: ATOM     25  H   UNL     1      36.828  15.812 122.262 -0.00 -0.00    +0.000 HD
DOCKED: BRANCH  22  24
DOCKED: ATOM     26  C   UNL     1      36.482  13.810 122.742 -0.41 -0.00    +0.000 A 
DOCKED: ATOM     27  C   UNL     1      35.781  12.956 123.606 -0.46 -0.00    +0.000 A 
DOCKED: ATOM     28  C   UNL     1      35.882  11.569 123.471 -0.59 -0.00    +0.000 A 
DOCKED: ATOM     29  C   UNL     1      36.707  11.007 122.479 -0.58 -0.00    +0.000 A 
DOCKED: ATOM     30  C   UNL     1      37.415  11.865 121.619 -0.39 -0.00    +0.000 A 
DOCKED: ATOM     31  C   UNL     1      37.312  13.252 121.756 -0.43 -0.00    +0.000 A 
DOCKED: ATOM     32  CM  UNL     1      36.597  12.410 122.612 +0.00 -0.00    +0.000 AC
DOCKED: BRANCH  27  30
DOCKED: ATOM     33  C   UNL     1      36.829   9.535 122.322 -0.67 -0.00    +0.000 C 
DOCKED: ATOM     34  N   UNL     1      37.102   8.684 123.440 -0.64 -0.00    +0.000 N 
DOCKED: ATOM     35  O   UNL     1      37.106   7.340 123.287 -2.36 -0.00    +0.000 OA
DOCKED: ATOM     36  O   UNL     1      36.705   9.021 121.177 -2.62 -0.00    +0.000 OA
DOCKED: ATOM     37  H   UNL     1      37.288   9.079 124.323 -0.58 -0.00    +0.000 HD
DOCKED: ENDBRANCH  27  30
DOCKED: ENDBRANCH  22  24
DOCKED: ENDBRANCH  19  21
DOCKED: ENDBRANCH   1  19
DOCKED: TORSDOF 9DOCKED: TER
DOCKED: ENDMDL
________________________________________________________________________________


	BEGINNING GENETIC ALGORITHM DOCKING 48 of 100
Run: 48 Seed: 1031275824 1914720089 [ Run 48 of 100 GA/GALS ]
Beginning LAMARCKIAN GENETIC ALGORITHM (LGA), with a maximum of 2500000 energy evaluations.

Final-Value: -16.632


	FINAL GENETIC ALGORITHM DOCKED STATE
	_______________________________________________


Detailed state:  trans 35.461 16.275 122.582 quatxyzw -0.081400 0.833407 -0.453900 0.304602 center 1.619 0.086 0.013 ntor 9 -110.5711 134.0099 -178.4341 -8.5349 -163.1720 -106.5927 164.4109 -123.1711 -57.6164
State:	 35.461  16.275 122.582  -0.085  0.875 -0.477 144.532   -110.57  134.01 -178.43   -8.53 -163.17 -106.59  164.41 -123.17  -57.62

DOCKED: MODEL       48
DOCKED: USER    Run = 48
DOCKED: USER    DPF = ligand_dock.biased.dpf
DOCKED: USER  
DOCKED: USER    Estimated Free Energy of Binding    =  -12.20 kcal/mol  [=(1)+(2)+(3)-(4)]
DOCKED: USER    Estimated Inhibition Constant, Ki   =    1.14 nM (nanomolar)  [Temperature = 298.15 K]
DOCKED: USER    
DOCKED: USER    (1) Final Intermolecular Energy     =  -14.89 kcal/mol
DOCKED: USER        vdW + Hbond + desolv Energy     =  -14.89 kcal/mol
DOCKED: USER        Electrostatic Energy            =   +0.00 kcal/mol
DOCKED: USER    (2) Final Total Internal Energy     =   -1.75 kcal/mol
DOCKED: USER    (3) Torsional Free Energy           =   +2.68 kcal/mol
DOCKED: USER    (4) Unbound System's Energy  [=(2)] =   -1.75 kcal/mol
DOCKED: USER    
DOCKED: USER    
DOCKED: USER    NEWDPF move ligand.dum.pdbqt
DOCKED: USER    NEWDPF about 1.619000 0.086000 0.013000
DOCKED: USER    NEWDPF tran0 35.461090 16.275077 122.582335
DOCKED: USER    NEWDPF quaternion0 -0.081400 0.833407 -0.453900 0.304602
DOCKED: USER    NEWDPF axisangle0 -0.085461 0.874986 -0.476545 144.531532
DOCKED: USER    NEWDPF quat0 -0.085461 0.874986 -0.476545 144.531532
DOCKED: USER    NEWDPF dihe0 -110.57 134.01 -178.43 -8.53 -163.17 -106.59 164.41 -123.17 -57.62 
DOCKED: USER  keepresnum = 1 
DOCKED: USER  
DOCKED: REMARK  Name = 
DOCKED: REMARK  11 active torsions:
DOCKED: REMARK  status: ('A' for Active; 'I' for Inactive)
DOCKED: REMARK    1  A    between atoms: C_2  and  O_3
DOCKED: REMARK    2  A    between atoms: O_3  and  C_4
DOCKED: REMARK    3  A    between atoms: C_4  and  C_5
DOCKED: REMARK    4  A    between atoms: C_10  and  C_11
DOCKED: REMARK    5  A    between atoms: C_11  and  N_12
DOCKED: REMARK    6  A    between atoms: N_12  and  C_13
DOCKED: REMARK    7  A    between atoms: N_12  and  C_15
DOCKED: REMARK    8  A    between atoms: C_13  and  C_14
DOCKED: REMARK    9  A    between atoms: C_15  and  C_16
DOCKED: REMARK   10  A    between atoms: N_21  and  C_22
DOCKED: REMARK   11  A    between atoms: C_25  and  C_26
DOCKED: REMARK                            x       y       z     vdW  Elec       q    Type
DOCKED: REMARK                         _______ _______ _______ _____ _____    ______ ____
DOCKED: USER                              x       y       z     vdW  Elec       q    Type
DOCKED: USER                           _______ _______ _______ _____ _____    ______ ____
DOCKED: ROOT
DOCKED: ATOM      1  C   UNL     1      36.326  18.029 123.965 -0.25 -0.00    +0.000 C 
DOCKED: ENDROOT
DOCKED: BRANCH   1   2
DOCKED: ATOM      2  C   UNL     1      37.403  17.720 122.965 -0.16 -0.00    +0.000 A 
DOCKED: ATOM      3  C   UNL     1      37.135  17.767 121.589 -0.12 -0.00    +0.000 A 
DOCKED: ATOM      4  C   UNL     1      38.136  17.460 120.662 -0.07 -0.00    +0.000 A 
DOCKED: ATOM      5  C   UNL     1      39.415  17.088 121.101 -0.10 -0.00    +0.000 A 
DOCKED: ATOM      6  C   UNL     1      40.423  16.769 120.178 -0.11 -0.00    +0.000 A 
DOCKED: ATOM      7  C   UNL     1      41.692  16.363 120.622 -0.18 -0.00    +0.000 A 
DOCKED: ATOM      8  C   UNL     1      41.959  16.320 122.000 -0.31 -0.00    +0.000 A 
DOCKED: ATOM      9  C   UNL     1      40.963  16.643 122.926 -0.31 -0.00    +0.000 A 
DOCKED: ATOM     10  C   UNL     1      39.687  17.024 122.488 -0.19 -0.00    +0.000 A 
DOCKED: ATOM     11  C   UNL     1      38.680  17.342 123.411 -0.20 -0.00    +0.000 A 
DOCKED: ATOM     12  CM  UNL     1      38.409  17.400 122.036 +0.00 -0.00    +0.000 AC
DOCKED: ATOM     13  CM  UNL     1      40.690  16.701 121.553 +0.00 -0.00    +0.000 AC
DOCKED: BRANCH   7  12
DOCKED: ATOM     14  C   UNL     1      42.773  16.033 119.624 -0.20 -0.00    +0.000 C 
DOCKED: BRANCH  12  13
DOCKED: ATOM     15  N   UNL     1      44.105  16.421 120.138 -0.20 -0.00    +0.000 N 
DOCKED: ATOM     16  H   UNL     1      44.021  16.206 121.133 -0.01 -0.00    +0.000 HD
DOCKED: BRANCH  13  15
DOCKED: ATOM     17  C   UNL     1      45.213  15.563 119.666 -0.33 +0.00    +0.000 C 
DOCKED: ATOM     18  C   UNL     1      44.848  14.079 119.577 -0.30 +0.00    +0.000 C 
DOCKED: ENDBRANCH  13  15
DOCKED: BRANCH  13  17
DOCKED: ATOM     19  C   UNL     1      44.409  17.874 120.187 -0.09 -0.00    +0.000 C 
DOCKED: ATOM     20  C   UNL     1      44.078  18.558 121.521 -0.13 -0.00    +0.000 C 
DOCKED: ENDBRANCH  13  17
DOCKED: ENDBRANCH  12  13
DOCKED: ENDBRANCH   7  12
DOCKED: ENDBRANCH   1   2
DOCKED: BRANCH   1  19
DOCKED: ATOM     21  O   UNL     1      35.165  17.267 123.655 -0.36 -0.00    +0.000 OA
DOCKED: BRANCH  19  21
DOCKED: ATOM     22  O   UNL     1      34.106  15.222 123.522 -0.64 -0.00    +0.000 OA
DOCKED: ATOM     23  C   UNL     1      35.185  15.876 123.522 -0.49 -0.00    +0.000 C 
DOCKED: ATOM     24  N   UNL     1      36.449  15.203 123.435 -0.42 -0.00    +0.000 N 
DOCKED: ATOM     25  H   UNL     1      37.265  15.740 123.559 -0.02 -0.00    +0.000 HD
DOCKED: BRANCH  22  24
DOCKED: ATOM     26  C   UNL     1      36.604  13.798 123.177 -0.49 -0.00    +0.000 A 
DOCKED: ATOM     27  C   UNL     1      37.094  13.377 121.932 -0.42 -0.00    +0.000 A 
DOCKED: ATOM     28  C   UNL     1      37.230  12.016 121.645 -0.46 -0.00    +0.000 A 
DOCKED: ATOM     29  C   UNL     1      36.855  11.046 122.592 -0.55 -0.00    +0.000 A 
DOCKED: ATOM     30  C   UNL     1      36.356  11.470 123.837 -0.60 -0.00    +0.000 A 
DOCKED: ATOM     31  C   UNL     1      36.222  12.832 124.122 -0.37 -0.00    +0.000 A 
DOCKED: ATOM     32  CM  UNL     1      36.726  12.423 122.885 +0.00 -0.00    +0.000 AC
DOCKED: BRANCH  27  30
DOCKED: ATOM     33  C   UNL     1      36.989   9.595 122.305 -0.62 -0.00    +0.000 C 
DOCKED: ATOM     34  N   UNL     1      37.038   8.626 123.358 -0.67 -0.00    +0.000 N 
DOCKED: ATOM     35  O   UNL     1      37.056   7.306 123.067 -2.27 -0.00    +0.000 OA
DOCKED: ATOM     36  O   UNL     1      37.075   9.204 121.108 -2.73 -0.00    +0.000 OA
DOCKED: ATOM     37  H   UNL     1      37.060   8.923 124.296 -0.54 -0.00    +0.000 HD
DOCKED: ENDBRANCH  27  30
DOCKED: ENDBRANCH  22  24
DOCKED: ENDBRANCH  19  21
DOCKED: ENDBRANCH   1  19
DOCKED: TORSDOF 9DOCKED: TER
DOCKED: ENDMDL
________________________________________________________________________________


	BEGINNING GENETIC ALGORITHM DOCKING 49 of 100
Run: 49 Seed: 382152581 1197784485 [ Run 49 of 100 GA/GALS ]
Beginning LAMARCKIAN GENETIC ALGORITHM (LGA), with a maximum of 2500000 energy evaluations.

Final-Value: -17.801


	FINAL GENETIC ALGORITHM DOCKED STATE
	_______________________________________________


Detailed state:  trans 37.414 16.596 122.960 quatxyzw 0.440034 0.473924 -0.085727 -0.757903 center 1.619 0.086 0.013 ntor 9 51.0424 179.2915 175.4668 18.0660 175.6071 24.1464 -118.2359 -134.2661 173.3596
State:	 37.414  16.596 122.960   0.675  0.726 -0.131 -81.441     51.04  179.29  175.47   18.07  175.61   24.15 -118.24 -134.27  173.36

DOCKED: MODEL       49
DOCKED: USER    Run = 49
DOCKED: USER    DPF = ligand_dock.biased.dpf
DOCKED: USER  
DOCKED: USER    Estimated Free Energy of Binding    =  -13.28 kcal/mol  [=(1)+(2)+(3)-(4)]
DOCKED: USER    Estimated Inhibition Constant, Ki   =  183.65 pM (picomolar)  [Temperature = 298.15 K]
DOCKED: USER    
DOCKED: USER    (1) Final Intermolecular Energy     =  -15.97 kcal/mol
DOCKED: USER        vdW + Hbond + desolv Energy     =  -15.97 kcal/mol
DOCKED: USER        Electrostatic Energy            =   +0.00 kcal/mol
DOCKED: USER    (2) Final Total Internal Energy     =   -1.83 kcal/mol
DOCKED: USER    (3) Torsional Free Energy           =   +2.68 kcal/mol
DOCKED: USER    (4) Unbound System's Energy  [=(2)] =   -1.83 kcal/mol
DOCKED: USER    
DOCKED: USER    
DOCKED: USER    NEWDPF move ligand.dum.pdbqt
DOCKED: USER    NEWDPF about 1.619000 0.086000 0.013000
DOCKED: USER    NEWDPF tran0 37.414457 16.596372 122.959779
DOCKED: USER    NEWDPF quaternion0 0.440034 0.473924 -0.085727 -0.757903
DOCKED: USER    NEWDPF axisangle0 0.674519 0.726468 -0.131409 -81.440642
DOCKED: USER    NEWDPF quat0 0.674519 0.726468 -0.131409 -81.440642
DOCKED: USER    NEWDPF dihe0 51.04 179.29 175.47 18.07 175.61 24.15 -118.24 -134.27 173.36 
DOCKED: USER  keepresnum = 1 
DOCKED: USER  
DOCKED: REMARK  Name = 
DOCKED: REMARK  11 active torsions:
DOCKED: REMARK  status: ('A' for Active; 'I' for Inactive)
DOCKED: REMARK    1  A    between atoms: C_2  and  O_3
DOCKED: REMARK    2  A    between atoms: O_3  and  C_4
DOCKED: REMARK    3  A    between atoms: C_4  and  C_5
DOCKED: REMARK    4  A    between atoms: C_10  and  C_11
DOCKED: REMARK    5  A    between atoms: C_11  and  N_12
DOCKED: REMARK    6  A    between atoms: N_12  and  C_13
DOCKED: REMARK    7  A    between atoms: N_12  and  C_15
DOCKED: REMARK    8  A    between atoms: C_13  and  C_14
DOCKED: REMARK    9  A    between atoms: C_15  and  C_16
DOCKED: REMARK   10  A    between atoms: N_21  and  C_22
DOCKED: REMARK   11  A    between atoms: C_25  and  C_26
DOCKED: REMARK                            x       y       z     vdW  Elec       q    Type
DOCKED: REMARK                         _______ _______ _______ _____ _____    ______ ____
DOCKED: USER                              x       y       z     vdW  Elec       q    Type
DOCKED: USER                           _______ _______ _______ _____ _____    ______ ____
DOCKED: ROOT
DOCKED: ATOM      1  C   UNL     1      35.920  18.260 122.101 -0.24 -0.00    +0.000 C 
DOCKED: ENDROOT
DOCKED: BRANCH   1   2
DOCKED: ATOM      2  C   UNL     1      35.287  17.745 123.362 -0.29 -0.00    +0.000 A 
DOCKED: ATOM      3  C   UNL     1      34.694  16.474 123.397 -0.42 -0.00    +0.000 A 
DOCKED: ATOM      4  C   UNL     1      34.091  16.006 124.568 -0.48 -0.00    +0.000 A 
DOCKED: ATOM      5  C   UNL     1      34.061  16.810 125.717 -0.39 -0.00    +0.000 A 
DOCKED: ATOM      6  C   UNL     1      33.449  16.353 126.894 -0.34 -0.00    +0.000 A 
DOCKED: ATOM      7  C   UNL     1      33.391  17.174 128.031 -0.33 -0.00    +0.000 A 
DOCKED: ATOM      8  C   UNL     1      33.989  18.445 127.996 -0.17 -0.00    +0.000 A 
DOCKED: ATOM      9  C   UNL     1      34.607  18.906 126.830 -0.18 -0.00    +0.000 A 
DOCKED: ATOM     10  C   UNL     1      34.645  18.099 125.684 -0.29 -0.00    +0.000 A 
DOCKED: ATOM     11  C   UNL     1      35.255  18.557 124.507 -0.25 -0.00    +0.000 A 
DOCKED: ATOM     12  CM  UNL     1      34.672  17.281 124.539 -0.33 -0.00    +0.000 AC
DOCKED: ATOM     13  CM  UNL     1      34.023  17.631 126.859 -0.03 -0.00    +0.000 AC
DOCKED: BRANCH   7  12
DOCKED: ATOM     14  C   UNL     1      32.742  16.671 129.296 -0.35 -0.00    +0.000 C 
DOCKED: BRANCH  12  13
DOCKED: ATOM     15  N   UNL     1      33.673  16.765 130.442 -0.24 -0.00    +0.000 N 
DOCKED: ATOM     16  H   UNL     1      33.826  17.771 130.512 +0.00 -0.00    +0.000 HD
DOCKED: BRANCH  13  15
DOCKED: ATOM     17  C   UNL     1      33.077  16.389 131.742 -0.30 -0.00    +0.000 C 
DOCKED: ATOM     18  C   UNL     1      33.823  15.261 132.459 -0.27 -0.00    +0.000 C 
DOCKED: ENDBRANCH  13  15
DOCKED: BRANCH  13  17
DOCKED: ATOM     19  C   UNL     1      35.060  16.282 130.221 -0.23 -0.00    +0.000 C 
DOCKED: ATOM     20  C   UNL     1      36.157  17.172 130.822 -0.18 -0.00    +0.000 C 
DOCKED: ENDBRANCH  13  17
DOCKED: ENDBRANCH  12  13
DOCKED: ENDBRANCH   7  12
DOCKED: ENDBRANCH   1   2
DOCKED: BRANCH   1  19
DOCKED: ATOM     21  O   UNL     1      37.206  17.670 121.946 -0.14 -0.00    +0.000 OA
DOCKED: BRANCH  19  21
DOCKED: ATOM     22  O   UNL     1      38.238  15.950 123.087 -0.33 -0.00    +0.000 OA
DOCKED: ATOM     23  C   UNL     1      37.448  16.311 122.171 -0.24 -0.00    +0.000 C 
DOCKED: ATOM     24  N   UNL     1      36.823  15.342 121.318 -0.23 -0.00    +0.000 N 
DOCKED: ATOM     25  H   UNL     1      36.311  15.673 120.544 -0.01 -0.00    +0.000 HD
DOCKED: BRANCH  22  24
DOCKED: ATOM     26  C   UNL     1      36.894  13.921 121.518 -0.23 -0.00    +0.000 A 
DOCKED: ATOM     27  C   UNL     1      37.442  13.111 120.512 -0.42 -0.00    +0.000 A 
DOCKED: ATOM     28  C   UNL     1      37.500  11.724 120.668 -0.41 -0.00    +0.000 A 
DOCKED: ATOM     29  C   UNL     1      36.988  11.115 121.829 -0.48 -0.00    +0.000 A 
DOCKED: ATOM     30  C   UNL     1      36.433  11.928 122.833 -0.59 -0.00    +0.000 A 
DOCKED: ATOM     31  C   UNL     1      36.377  13.316 122.675 -0.43 -0.00    +0.000 A 
DOCKED: ATOM     32  CM  UNL     1      36.938  12.519 121.673 +0.00 -0.00    +0.000 AC
DOCKED: BRANCH  27  30
DOCKED: ATOM     33  C   UNL     1      37.037   9.642 122.013 -0.60 -0.00    +0.000 C 
DOCKED: ATOM     34  N   UNL     1      37.070   9.053 123.317 -0.61 -0.00    +0.000 N 
DOCKED: ATOM     35  O   UNL     1      37.011   7.709 123.458 -2.66 -0.00    +0.000 OA
DOCKED: ATOM     36  O   UNL     1      37.065   8.890 121.000 -2.71 -0.00    +0.000 OA
DOCKED: ATOM     37  H   UNL     1      37.137   9.627 124.113 -0.56 -0.00    +0.000 HD
DOCKED: ENDBRANCH  27  30
DOCKED: ENDBRANCH  22  24
DOCKED: ENDBRANCH  19  21
DOCKED: ENDBRANCH   1  19
DOCKED: TORSDOF 9DOCKED: TER
DOCKED: ENDMDL
________________________________________________________________________________


	BEGINNING GENETIC ALGORITHM DOCKING 50 of 100
Run: 50 Seed: 1563740987 375285431 [ Run 50 of 100 GA/GALS ]
Beginning LAMARCKIAN GENETIC ALGORITHM (LGA), with a maximum of 2500000 energy evaluations.

Final-Value: -16.683


	FINAL GENETIC ALGORITHM DOCKED STATE
	_______________________________________________


Detailed state:  trans 38.081 16.446 122.793 quatxyzw 0.523609 -0.245016 0.759965 -0.297077 center 1.619 0.086 0.013 ntor 9 -118.9387 -168.5833 -172.6072 122.1172 118.7952 66.3665 99.7336 157.5440 169.4577
State:	 38.081  16.446 122.793   0.548 -0.257  0.796 -145.436   -118.94 -168.58 -172.61  122.12  118.80   66.37   99.73  157.54  169.46

DOCKED: MODEL       50
DOCKED: USER    Run = 50
DOCKED: USER    DPF = ligand_dock.biased.dpf
DOCKED: USER  
DOCKED: USER    Estimated Free Energy of Binding    =  -11.74 kcal/mol  [=(1)+(2)+(3)-(4)]
DOCKED: USER    Estimated Inhibition Constant, Ki   =    2.48 nM (nanomolar)  [Temperature = 298.15 K]
DOCKED: USER    
DOCKED: USER    (1) Final Intermolecular Energy     =  -14.42 kcal/mol
DOCKED: USER        vdW + Hbond + desolv Energy     =  -14.42 kcal/mol
DOCKED: USER        Electrostatic Energy            =   +0.00 kcal/mol
DOCKED: USER    (2) Final Total Internal Energy     =   -2.26 kcal/mol
DOCKED: USER    (3) Torsional Free Energy           =   +2.68 kcal/mol
DOCKED: USER    (4) Unbound System's Energy  [=(2)] =   -2.26 kcal/mol
DOCKED: USER    
DOCKED: USER    
DOCKED: USER    NEWDPF move ligand.dum.pdbqt
DOCKED: USER    NEWDPF about 1.619000 0.086000 0.013000
DOCKED: USER    NEWDPF tran0 38.080819 16.446341 122.792528
DOCKED: USER    NEWDPF quaternion0 0.523609 -0.245016 0.759965 -0.297077
DOCKED: USER    NEWDPF axisangle0 0.548366 -0.256600 0.795897 -145.435772
DOCKED: USER    NEWDPF quat0 0.548366 -0.256600 0.795897 -145.435772
DOCKED: USER    NEWDPF dihe0 -118.94 -168.58 -172.61 122.12 118.80 66.37 99.73 157.54 169.46 
DOCKED: USER  keepresnum = 1 
DOCKED: USER  
DOCKED: REMARK  Name = 
DOCKED: REMARK  11 active torsions:
DOCKED: REMARK  status: ('A' for Active; 'I' for Inactive)
DOCKED: REMARK    1  A    between atoms: C_2  and  O_3
DOCKED: REMARK    2  A    between atoms: O_3  and  C_4
DOCKED: REMARK    3  A    between atoms: C_4  and  C_5
DOCKED: REMARK    4  A    between atoms: C_10  and  C_11
DOCKED: REMARK    5  A    between atoms: C_11  and  N_12
DOCKED: REMARK    6  A    between atoms: N_12  and  C_13
DOCKED: REMARK    7  A    between atoms: N_12  and  C_15
DOCKED: REMARK    8  A    between atoms: C_13  and  C_14
DOCKED: REMARK    9  A    between atoms: C_15  and  C_16
DOCKED: REMARK   10  A    between atoms: N_21  and  C_22
DOCKED: REMARK   11  A    between atoms: C_25  and  C_26
DOCKED: REMARK                            x       y       z     vdW  Elec       q    Type
DOCKED: REMARK                         _______ _______ _______ _____ _____    ______ ____
DOCKED: USER                              x       y       z     vdW  Elec       q    Type
DOCKED: USER                           _______ _______ _______ _____ _____    ______ ____
DOCKED: ROOT
DOCKED: ATOM      1  C   UNL     1      36.688  18.349 122.372 -0.17 -0.00    +0.000 C 
DOCKED: ENDROOT
DOCKED: BRANCH   1   2
DOCKED: ATOM      2  C   UNL     1      37.157  17.873 121.027 -0.11 -0.00    +0.000 A 
DOCKED: ATOM      3  C   UNL     1      38.455  18.161 120.580 -0.05 -0.00    +0.000 A 
DOCKED: ATOM      4  C   UNL     1      38.882  17.730 119.320 -0.04 -0.00    +0.000 A 
DOCKED: ATOM      5  C   UNL     1      38.010  17.018 118.484 -0.07 -0.00    +0.000 A 
DOCKED: ATOM      6  C   UNL     1      38.426  16.591 117.214 -0.09 -0.00    +0.000 A 
DOCKED: ATOM      7  C   UNL     1      37.539  15.909 116.366 -0.11 -0.00    +0.000 A 
DOCKED: ATOM      8  C   UNL     1      36.241  15.618 116.816 -0.16 -0.00    +0.000 A 
DOCKED: ATOM      9  C   UNL     1      35.820  16.033 118.084 -0.15 -0.00    +0.000 A 
DOCKED: ATOM     10  C   UNL     1      36.694  16.738 118.923 -0.12 -0.00    +0.000 A 
DOCKED: ATOM     11  C   UNL     1      36.277  17.166 120.192 -0.15 -0.00    +0.000 A 
DOCKED: ATOM     12  CM  UNL     1      37.580  17.448 119.755 +0.00 -0.00    +0.000 AC
DOCKED: ATOM     13  CM  UNL     1      37.121  16.318 117.648 +0.00 -0.00    +0.000 AC
DOCKED: BRANCH   7  12
DOCKED: ATOM     14  C   UNL     1      37.997  15.443 115.008 -0.19 -0.00    +0.000 C 
DOCKED: BRANCH  12  13
DOCKED: ATOM     15  N   UNL     1      39.004  14.365 115.129 -0.35 -0.00    +0.000 N 
DOCKED: ATOM     16  H   UNL     1      39.052  14.009 114.174 -0.02 -0.00    +0.000 HD
DOCKED: BRANCH  13  15
DOCKED: ATOM     17  C   UNL     1      40.374  14.841 115.417 -0.34 -0.00    +0.000 C 
DOCKED: ATOM     18  C   UNL     1      40.818  16.010 114.534 -0.24 -0.00    +0.000 C 
DOCKED: ENDBRANCH  13  15
DOCKED: BRANCH  13  17
DOCKED: ATOM     19  C   UNL     1      38.593  13.143 115.867 -0.52 -0.00    +0.000 C 
DOCKED: ATOM     20  C   UNL     1      39.271  11.848 115.398 -0.43 -0.00    +0.000 C 
DOCKED: ENDBRANCH  13  17
DOCKED: ENDBRANCH  12  13
DOCKED: ENDBRANCH   7  12
DOCKED: ENDBRANCH   1   2
DOCKED: BRANCH   1  19
DOCKED: ATOM     21  O   UNL     1      37.135  17.442 123.373 -0.23 -0.00    +0.000 OA
DOCKED: BRANCH  19  21
DOCKED: ATOM     22  O   UNL     1      38.634  15.737 122.966 -0.35 -0.00    +0.000 OA
DOCKED: ATOM     23  C   UNL     1      37.434  16.103 123.103 -0.32 -0.00    +0.000 C 
DOCKED: ATOM     24  N   UNL     1      36.359  15.169 122.939 -0.38 -0.00    +0.000 N 
DOCKED: ATOM     25  H   UNL     1      35.439  15.521 122.936 -0.02 -0.00    +0.000 HD
DOCKED: BRANCH  22  24
DOCKED: ATOM     26  C   UNL     1      36.534  13.751 122.779 -0.43 -0.00    +0.000 A 
DOCKED: ATOM     27  C   UNL     1      36.914  13.242 121.529 -0.36 -0.00    +0.000 A 
DOCKED: ATOM     28  C   UNL     1      37.066  11.866 121.338 -0.49 -0.00    +0.000 A 
DOCKED: ATOM     29  C   UNL     1      36.818  10.967 122.392 -0.55 -0.00    +0.000 A 
DOCKED: ATOM     30  C   UNL     1      36.430  11.480 123.643 -0.62 -0.00    +0.000 A 
DOCKED: ATOM     31  C   UNL     1      36.280  12.857 123.832 -0.55 -0.00    +0.000 A 
DOCKED: ATOM     32  CM  UNL     1      36.673  12.360 122.586 +0.00 -0.00    +0.000 AC
DOCKED: BRANCH  27  30
DOCKED: ATOM     33  C   UNL     1      36.971   9.502 122.208 -0.64 -0.00    +0.000 C 
DOCKED: ATOM     34  N   UNL     1      37.032   8.611 123.328 -0.67 -0.00    +0.000 N 
DOCKED: ATOM     35  O   UNL     1      37.068   7.273 123.131 -2.26 -0.00    +0.000 OA
DOCKED: ATOM     36  O   UNL     1      37.063   9.028 121.043 -2.72 -0.00    +0.000 OA
DOCKED: ATOM     37  H   UNL     1      37.049   8.974 124.243 -0.55 -0.00    +0.000 HD
DOCKED: ENDBRANCH  27  30
DOCKED: ENDBRANCH  22  24
DOCKED: ENDBRANCH  19  21
DOCKED: ENDBRANCH   1  19
DOCKED: TORSDOF 9DOCKED: TER
DOCKED: ENDMDL
________________________________________________________________________________


	BEGINNING GENETIC ALGORITHM DOCKING 51 of 100
Run: 51 Seed: 1678321134 647341711 [ Run 51 of 100 GA/GALS ]
Beginning LAMARCKIAN GENETIC ALGORITHM (LGA), with a maximum of 2500000 energy evaluations.

Final-Value: -17.094


	FINAL GENETIC ALGORITHM DOCKED STATE
	_______________________________________________


Detailed state:  trans 36.966 16.777 122.900 quatxyzw 0.487000 -0.174117 0.824500 -0.229597 center 1.619 0.086 0.013 ntor 9 -180.0000 145.8690 164.3441 141.0169 -175.6219 -71.6787 -100.3930 126.3131 179.9591
State:	 36.966  16.777 122.900   0.500 -0.179  0.847 -153.453   -180.00  145.87  164.34  141.02 -175.62  -71.68 -100.39  126.31  179.96

DOCKED: MODEL       51
DOCKED: USER    Run = 51
DOCKED: USER    DPF = ligand_dock.biased.dpf
DOCKED: USER  
DOCKED: USER    Estimated Free Energy of Binding    =  -12.31 kcal/mol  [=(1)+(2)+(3)-(4)]
DOCKED: USER    Estimated Inhibition Constant, Ki   =  955.03 pM (picomolar)  [Temperature = 298.15 K]
DOCKED: USER    
DOCKED: USER    (1) Final Intermolecular Energy     =  -14.99 kcal/mol
DOCKED: USER        vdW + Hbond + desolv Energy     =  -14.99 kcal/mol
DOCKED: USER        Electrostatic Energy            =   +0.00 kcal/mol
DOCKED: USER    (2) Final Total Internal Energy     =   -2.10 kcal/mol
DOCKED: USER    (3) Torsional Free Energy           =   +2.68 kcal/mol
DOCKED: USER    (4) Unbound System's Energy  [=(2)] =   -2.10 kcal/mol
DOCKED: USER    
DOCKED: USER    
DOCKED: USER    NEWDPF move ligand.dum.pdbqt
DOCKED: USER    NEWDPF about 1.619000 0.086000 0.013000
DOCKED: USER    NEWDPF tran0 36.965663 16.777402 122.900316
DOCKED: USER    NEWDPF quaternion0 0.487000 -0.174117 0.824500 -0.229597
DOCKED: USER    NEWDPF axisangle0 0.500367 -0.178896 0.847130 -153.453294
DOCKED: USER    NEWDPF quat0 0.500367 -0.178896 0.847130 -153.453294
DOCKED: USER    NEWDPF dihe0 -180.00 145.87 164.34 141.02 -175.62 -71.68 -100.39 126.31 179.96 
DOCKED: USER  keepresnum = 1 
DOCKED: USER  
DOCKED: REMARK  Name = 
DOCKED: REMARK  11 active torsions:
DOCKED: REMARK  status: ('A' for Active; 'I' for Inactive)
DOCKED: REMARK    1  A    between atoms: C_2  and  O_3
DOCKED: REMARK    2  A    between atoms: O_3  and  C_4
DOCKED: REMARK    3  A    between atoms: C_4  and  C_5
DOCKED: REMARK    4  A    between atoms: C_10  and  C_11
DOCKED: REMARK    5  A    between atoms: C_11  and  N_12
DOCKED: REMARK    6  A    between atoms: N_12  and  C_13
DOCKED: REMARK    7  A    between atoms: N_12  and  C_15
DOCKED: REMARK    8  A    between atoms: C_13  and  C_14
DOCKED: REMARK    9  A    between atoms: C_15  and  C_16
DOCKED: REMARK   10  A    between atoms: N_21  and  C_22
DOCKED: REMARK   11  A    between atoms: C_25  and  C_26
DOCKED: REMARK                            x       y       z     vdW  Elec       q    Type
DOCKED: REMARK                         _______ _______ _______ _____ _____    ______ ____
DOCKED: USER                              x       y       z     vdW  Elec       q    Type
DOCKED: USER                           _______ _______ _______ _____ _____    ______ ____
DOCKED: ROOT
DOCKED: ATOM      1  C   UNL     1      35.298  18.322 122.146 -0.29 -0.00    +0.000 C 
DOCKED: ENDROOT
DOCKED: BRANCH   1   2
DOCKED: ATOM      2  C   UNL     1      36.010  17.846 120.913 -0.18 -0.00    +0.000 A 
DOCKED: ATOM      3  C   UNL     1      37.354  18.181 120.690 -0.08 -0.00    +0.000 A 
DOCKED: ATOM      4  C   UNL     1      38.008  17.750 119.532 -0.05 -0.00    +0.000 A 
DOCKED: ATOM      5  C   UNL     1      37.321  16.990 118.574 -0.09 -0.00    +0.000 A 
DOCKED: ATOM      6  C   UNL     1      37.966  16.562 117.404 -0.09 -0.00    +0.000 A 
DOCKED: ATOM      7  C   UNL     1      37.265  15.831 116.431 -0.12 -0.00    +0.000 A 
DOCKED: ATOM      8  C   UNL     1      35.921  15.494 116.657 -0.18 -0.00    +0.000 A 
DOCKED: ATOM      9  C   UNL     1      35.272  15.910 117.824 -0.11 -0.00    +0.000 A 
DOCKED: ATOM     10  C   UNL     1      35.961  16.662 118.786 -0.14 -0.00    +0.000 A 
DOCKED: ATOM     11  C   UNL     1      35.315  17.091 119.955 -0.01 -0.00    +0.000 A 
DOCKED: ATOM     12  CM  UNL     1      36.662  17.420 119.742 +0.00 -0.00    +0.000 AC
DOCKED: ATOM     13  CM  UNL     1      36.617  16.241 117.612 +0.00 -0.00    +0.000 AC
DOCKED: BRANCH   7  12
DOCKED: ATOM     14  C   UNL     1      37.969  15.364 115.182 -0.20 -0.00    +0.000 C 
DOCKED: BRANCH  12  13
DOCKED: ATOM     15  N   UNL     1      37.663  13.945 114.900 -0.34 -0.00    +0.000 N 
DOCKED: ATOM     16  H   UNL     1      38.278  13.746 114.110 -0.02 -0.00    +0.000 HD
DOCKED: BRANCH  13  15
DOCKED: ATOM     17  C   UNL     1      38.101  13.007 115.956 -0.49 -0.00    +0.000 C 
DOCKED: ATOM     18  C   UNL     1      39.309  12.154 115.561 -0.46 -0.00    +0.000 C 
DOCKED: ENDBRANCH  13  15
DOCKED: BRANCH  13  17
DOCKED: ATOM     19  C   UNL     1      36.334  13.650 114.306 -0.33 -0.00    +0.000 C 
DOCKED: ATOM     20  C   UNL     1      36.357  13.318 112.807 -0.33 -0.00    +0.000 C 
DOCKED: ENDBRANCH  13  17
DOCKED: ENDBRANCH  12  13
DOCKED: ENDBRANCH   7  12
DOCKED: ENDBRANCH   1   2
DOCKED: BRANCH   1  19
DOCKED: ATOM     21  O   UNL     1      35.784  17.605 123.275 -0.27 -0.00    +0.000 OA
DOCKED: BRANCH  19  21
DOCKED: ATOM     22  O   UNL     1      34.856  15.617 123.989 -0.58 -0.00    +0.000 OA
DOCKED: ATOM     23  C   UNL     1      35.769  16.209 123.349 -0.40 -0.00    +0.000 C 
DOCKED: ATOM     24  N   UNL     1      36.829  15.468 122.730 -0.33 -0.00    +0.000 N 
DOCKED: ATOM     25  H   UNL     1      37.581  15.975 122.346 +0.00 -0.00    +0.000 HD
DOCKED: BRANCH  22  24
DOCKED: ATOM     26  C   UNL     1      36.866  14.034 122.632 -0.42 -0.00    +0.000 A 
DOCKED: ATOM     27  C   UNL     1      37.393  13.437 121.477 -0.41 -0.00    +0.000 A 
DOCKED: ATOM     28  C   UNL     1      37.418  12.047 121.344 -0.44 -0.00    +0.000 A 
DOCKED: ATOM     29  C   UNL     1      36.893  11.223 122.357 -0.53 -0.00    +0.000 A 
DOCKED: ATOM     30  C   UNL     1      36.358  11.824 123.511 -0.63 -0.00    +0.000 A 
DOCKED: ATOM     31  C   UNL     1      36.336  13.216 123.642 -0.53 -0.00    +0.000 A 
DOCKED: ATOM     32  CM  UNL     1      36.877  12.630 122.494 +0.00 -0.00    +0.000 AC
DOCKED: BRANCH  27  30
DOCKED: ATOM     33  C   UNL     1      36.907   9.744 122.232 -0.63 -0.00    +0.000 C 
DOCKED: ATOM     34  N   UNL     1      37.163   8.901 123.362 -0.59 -0.00    +0.000 N 
DOCKED: ATOM     35  O   UNL     1      37.068   7.557 123.243 -2.50 -0.00    +0.000 OA
DOCKED: ATOM     36  O   UNL     1      36.704   9.213 121.106 -2.62 -0.00    +0.000 OA
DOCKED: ATOM     37  H   UNL     1      37.409   9.302 124.226 -0.63 -0.00    +0.000 HD
DOCKED: ENDBRANCH  27  30
DOCKED: ENDBRANCH  22  24
DOCKED: ENDBRANCH  19  21
DOCKED: ENDBRANCH   1  19
DOCKED: TORSDOF 9DOCKED: TER
DOCKED: ENDMDL
________________________________________________________________________________


	BEGINNING GENETIC ALGORITHM DOCKING 52 of 100
Run: 52 Seed: 2034442474 542699331 [ Run 52 of 100 GA/GALS ]
Beginning LAMARCKIAN GENETIC ALGORITHM (LGA), with a maximum of 2500000 energy evaluations.

Final-Value: -18.277


	FINAL GENETIC ALGORITHM DOCKED STATE
	_______________________________________________


Detailed state:  trans 37.610 16.603 123.446 quatxyzw -0.402002 -0.421453 0.078636 0.809066 center 1.619 0.086 0.013 ntor 9 171.7576 -145.2522 172.4204 -80.1658 -96.7583 30.3359 -140.7293 -121.2656 -167.3718
State:	 37.610  16.603 123.446  -0.684 -0.717  0.134 71.990    171.76 -145.25  172.42  -80.17  -96.76   30.34 -140.73 -121.27 -167.37

DOCKED: MODEL       52
DOCKED: USER    Run = 52
DOCKED: USER    DPF = ligand_dock.biased.dpf
DOCKED: USER  
DOCKED: USER    Estimated Free Energy of Binding    =  -14.09 kcal/mol  [=(1)+(2)+(3)-(4)]
DOCKED: USER    Estimated Inhibition Constant, Ki   =   46.70 pM (picomolar)  [Temperature = 298.15 K]
DOCKED: USER    
DOCKED: USER    (1) Final Intermolecular Energy     =  -16.78 kcal/mol
DOCKED: USER        vdW + Hbond + desolv Energy     =  -16.78 kcal/mol
DOCKED: USER        Electrostatic Energy            =   +0.00 kcal/mol
DOCKED: USER    (2) Final Total Internal Energy     =   -1.50 kcal/mol
DOCKED: USER    (3) Torsional Free Energy           =   +2.68 kcal/mol
DOCKED: USER    (4) Unbound System's Energy  [=(2)] =   -1.50 kcal/mol
DOCKED: USER    
DOCKED: USER    
DOCKED: USER    NEWDPF move ligand.dum.pdbqt
DOCKED: USER    NEWDPF about 1.619000 0.086000 0.013000
DOCKED: USER    NEWDPF tran0 37.609508 16.603316 123.446237
DOCKED: USER    NEWDPF quaternion0 -0.402002 -0.421453 0.078636 0.809066
DOCKED: USER    NEWDPF axisangle0 -0.684005 -0.717101 0.133799 71.990419
DOCKED: USER    NEWDPF quat0 -0.684005 -0.717101 0.133799 71.990419
DOCKED: USER    NEWDPF dihe0 171.76 -145.25 172.42 -80.17 -96.76 30.34 -140.73 -121.27 -167.37 
DOCKED: USER  keepresnum = 1 
DOCKED: USER  
DOCKED: REMARK  Name = 
DOCKED: REMARK  11 active torsions:
DOCKED: REMARK  status: ('A' for Active; 'I' for Inactive)
DOCKED: REMARK    1  A    between atoms: C_2  and  O_3
DOCKED: REMARK    2  A    between atoms: O_3  and  C_4
DOCKED: REMARK    3  A    between atoms: C_4  and  C_5
DOCKED: REMARK    4  A    between atoms: C_10  and  C_11
DOCKED: REMARK    5  A    between atoms: C_11  and  N_12
DOCKED: REMARK    6  A    between atoms: N_12  and  C_13
DOCKED: REMARK    7  A    between atoms: N_12  and  C_15
DOCKED: REMARK    8  A    between atoms: C_13  and  C_14
DOCKED: REMARK    9  A    between atoms: C_15  and  C_16
DOCKED: REMARK   10  A    between atoms: N_21  and  C_22
DOCKED: REMARK   11  A    between atoms: C_25  and  C_26
DOCKED: REMARK                            x       y       z     vdW  Elec       q    Type
DOCKED: REMARK                         _______ _______ _______ _____ _____    ______ ____
DOCKED: USER                              x       y       z     vdW  Elec       q    Type
DOCKED: USER                           _______ _______ _______ _____ _____    ______ ____
DOCKED: ROOT
DOCKED: ATOM      1  C   UNL     1      36.232  18.144 122.235 -0.21 -0.00    +0.000 C 
DOCKED: ENDROOT
DOCKED: BRANCH   1   2
DOCKED: ATOM      2  C   UNL     1      35.445  17.753 123.453 -0.28 -0.00    +0.000 A 
DOCKED: ATOM      3  C   UNL     1      35.200  16.403 123.741 -0.40 -0.00    +0.000 A 
DOCKED: ATOM      4  C   UNL     1      34.451  16.044 124.867 -0.49 -0.00    +0.000 A 
DOCKED: ATOM      5  C   UNL     1      33.927  17.034 125.710 -0.37 -0.00    +0.000 A 
DOCKED: ATOM      6  C   UNL     1      33.166  16.683 126.837 -0.31 -0.00    +0.000 A 
DOCKED: ATOM      7  C   UNL     1      32.614  17.678 127.660 -0.29 -0.00    +0.000 A 
DOCKED: ATOM      8  C   UNL     1      32.864  19.029 127.371 -0.20 -0.00    +0.000 A 
DOCKED: ATOM      9  C   UNL     1      33.627  19.387 126.255 -0.23 -0.00    +0.000 A 
DOCKED: ATOM     10  C   UNL     1      34.158  18.398 125.416 -0.31 -0.00    +0.000 A 
DOCKED: ATOM     11  C   UNL     1      34.918  18.749 124.290 -0.22 -0.00    +0.000 A 
DOCKED: ATOM     12  CM  UNL     1      34.684  17.396 124.579 -0.37 -0.00    +0.000 AC
DOCKED: ATOM     13  CM  UNL     1      33.392  18.035 126.542 -0.02 -0.00    +0.000 AC
DOCKED: BRANCH   7  12
DOCKED: ATOM     14  C   UNL     1      31.808  17.293 128.874 -0.39 -0.00    +0.000 C 
DOCKED: BRANCH  12  13
DOCKED: ATOM     15  N   UNL     1      30.742  18.285 129.139 -0.31 -0.00    +0.000 N 
DOCKED: ATOM     16  H   UNL     1      31.189  19.159 128.860 +0.01 -0.00    +0.000 HD
DOCKED: BRANCH  13  15
DOCKED: ATOM     17  C   UNL     1      29.568  18.168 128.248 -0.39 -0.00    +0.000 C 
DOCKED: ATOM     18  C   UNL     1      29.351  19.389 127.351 -0.52 -0.00    +0.000 C 
DOCKED: ENDBRANCH  13  15
DOCKED: BRANCH  13  17
DOCKED: ATOM     19  C   UNL     1      30.428  18.568 130.562 -0.29 -0.00    +0.000 C 
DOCKED: ATOM     20  C   UNL     1      29.435  19.717 130.788 -0.32 -0.00    +0.000 C 
DOCKED: ENDBRANCH  13  17
DOCKED: ENDBRANCH  12  13
DOCKED: ENDBRANCH   7  12
DOCKED: ENDBRANCH   1   2
DOCKED: BRANCH   1  19
DOCKED: ATOM     21  O   UNL     1      37.529  17.562 122.307 -0.15 -0.00    +0.000 OA
DOCKED: BRANCH  19  21
DOCKED: ATOM     22  O   UNL     1      38.643  15.751 123.203 -0.34 -0.00    +0.000 OA
DOCKED: ATOM     23  C   UNL     1      37.735  16.186 122.442 -0.27 -0.00    +0.000 C 
DOCKED: ATOM     24  N   UNL     1      36.933  15.283 121.669 -0.26 -0.00    +0.000 N 
DOCKED: ATOM     25  H   UNL     1      36.320  15.669 121.001 -0.01 -0.00    +0.000 HD
DOCKED: BRANCH  22  24
DOCKED: ATOM     26  C   UNL     1      36.963  13.852 121.804 -0.33 -0.00    +0.000 A 
DOCKED: ATOM     27  C   UNL     1      37.425  13.069 120.736 -0.43 -0.00    +0.000 A 
DOCKED: ATOM     28  C   UNL     1      37.440  11.676 120.831 -0.43 -0.00    +0.000 A 
DOCKED: ATOM     29  C   UNL     1      36.971  11.034 121.992 -0.49 -0.00    +0.000 A 
DOCKED: ATOM     30  C   UNL     1      36.502  11.821 123.059 -0.61 -0.00    +0.000 A 
DOCKED: ATOM     31  C   UNL     1      36.488  13.215 122.962 -0.51 -0.00    +0.000 A 
DOCKED: ATOM     32  CM  UNL     1      36.964  12.444 121.898 +0.00 -0.00    +0.000 AC
DOCKED: BRANCH  27  30
DOCKED: ATOM     33  C   UNL     1      36.977   9.554 122.110 -0.63 -0.00    +0.000 C 
DOCKED: ATOM     34  N   UNL     1      37.124   8.906 123.379 -0.60 -0.00    +0.000 N 
DOCKED: ATOM     35  O   UNL     1      37.023   7.561 123.472 -2.55 -0.00    +0.000 OA
DOCKED: ATOM     36  O   UNL     1      36.863   8.846 121.072 -2.65 -0.00    +0.000 OA
DOCKED: ATOM     37  H   UNL     1      37.301   9.443 124.185 -0.61 -0.00    +0.000 HD
DOCKED: ENDBRANCH  27  30
DOCKED: ENDBRANCH  22  24
DOCKED: ENDBRANCH  19  21
DOCKED: ENDBRANCH   1  19
DOCKED: TORSDOF 9DOCKED: TER
DOCKED: ENDMDL
________________________________________________________________________________


	BEGINNING GENETIC ALGORITHM DOCKING 53 of 100
Run: 53 Seed: 452700394 884310536 [ Run 53 of 100 GA/GALS ]
Beginning LAMARCKIAN GENETIC ALGORITHM (LGA), with a maximum of 2500000 energy evaluations.

Final-Value: -17.471


	FINAL GENETIC ALGORITHM DOCKED STATE
	_______________________________________________


Detailed state:  trans 36.139 17.004 118.777 quatxyzw -0.966839 0.124305 -0.010152 0.222862 center 1.619 0.086 0.013 ntor 9 -103.5693 -179.6489 168.0554 16.7519 1.8352 176.1250 134.4101 103.0907 2.7477
State:	 36.139  17.004 118.777  -0.992  0.128 -0.010 154.246   -103.57 -179.65  168.06   16.75    1.84  176.13  134.41  103.09    2.75

DOCKED: MODEL       53
DOCKED: USER    Run = 53
DOCKED: USER    DPF = ligand_dock.biased.dpf
DOCKED: USER  
DOCKED: USER    Estimated Free Energy of Binding    =  -13.12 kcal/mol  [=(1)+(2)+(3)-(4)]
DOCKED: USER    Estimated Inhibition Constant, Ki   =  241.79 pM (picomolar)  [Temperature = 298.15 K]
DOCKED: USER    
DOCKED: USER    (1) Final Intermolecular Energy     =  -15.80 kcal/mol
DOCKED: USER        vdW + Hbond + desolv Energy     =  -15.80 kcal/mol
DOCKED: USER        Electrostatic Energy            =   +0.00 kcal/mol
DOCKED: USER    (2) Final Total Internal Energy     =   -1.67 kcal/mol
DOCKED: USER    (3) Torsional Free Energy           =   +2.68 kcal/mol
DOCKED: USER    (4) Unbound System's Energy  [=(2)] =   -1.67 kcal/mol
DOCKED: USER    
DOCKED: USER    
DOCKED: USER    NEWDPF move ligand.dum.pdbqt
DOCKED: USER    NEWDPF about 1.619000 0.086000 0.013000
DOCKED: USER    NEWDPF tran0 36.139102 17.004136 118.777429
DOCKED: USER    NEWDPF quaternion0 -0.966839 0.124305 -0.010152 0.222862
DOCKED: USER    NEWDPF axisangle0 -0.991782 0.127512 -0.010414 154.245644
DOCKED: USER    NEWDPF quat0 -0.991782 0.127512 -0.010414 154.245644
DOCKED: USER    NEWDPF dihe0 -103.57 -179.65 168.06 16.75 1.84 176.13 134.41 103.09 2.75 
DOCKED: USER  keepresnum = 1 
DOCKED: USER  
DOCKED: REMARK  Name = 
DOCKED: REMARK  11 active torsions:
DOCKED: REMARK  status: ('A' for Active; 'I' for Inactive)
DOCKED: REMARK    1  A    between atoms: C_2  and  O_3
DOCKED: REMARK    2  A    between atoms: O_3  and  C_4
DOCKED: REMARK    3  A    between atoms: C_4  and  C_5
DOCKED: REMARK    4  A    between atoms: C_10  and  C_11
DOCKED: REMARK    5  A    between atoms: C_11  and  N_12
DOCKED: REMARK    6  A    between atoms: N_12  and  C_13
DOCKED: REMARK    7  A    between atoms: N_12  and  C_15
DOCKED: REMARK    8  A    between atoms: C_13  and  C_14
DOCKED: REMARK    9  A    between atoms: C_15  and  C_16
DOCKED: REMARK   10  A    between atoms: N_21  and  C_22
DOCKED: REMARK   11  A    between atoms: C_25  and  C_26
DOCKED: REMARK                            x       y       z     vdW  Elec       q    Type
DOCKED: REMARK                         _______ _______ _______ _____ _____    ______ ____
DOCKED: USER                              x       y       z     vdW  Elec       q    Type
DOCKED: USER                           _______ _______ _______ _____ _____    ______ ____
DOCKED: ROOT
DOCKED: ATOM      1  C   UNL     1      36.650  18.220 120.777 -0.15 -0.00    +0.000 C 
DOCKED: ENDROOT
DOCKED: BRANCH   1   2
DOCKED: ATOM      2  C   UNL     1      35.181  18.417 120.535 -0.23 -0.00    +0.000 A 
DOCKED: ATOM      3  C   UNL     1      34.234  17.922 121.445 -0.32 -0.00    +0.000 A 
DOCKED: ATOM      4  C   UNL     1      32.867  18.092 121.207 -0.18 -0.00    +0.000 A 
DOCKED: ATOM      5  C   UNL     1      32.429  18.747 120.047 -0.39 -0.00    +0.000 A 
DOCKED: ATOM      6  C   UNL     1      31.058  18.914 119.795 -0.45 -0.00    +0.000 A 
DOCKED: ATOM      7  C   UNL     1      30.623  19.540 118.615 -0.30 -0.00    +0.000 A 
DOCKED: ATOM      8  C   UNL     1      31.571  20.037 117.707 -0.16 -0.00    +0.000 A 
DOCKED: ATOM      9  C   UNL     1      32.939  19.882 117.954 -0.17 -0.00    +0.000 A 
DOCKED: ATOM     10  C   UNL     1      33.378  19.235 119.118 -0.25 -0.00    +0.000 A 
DOCKED: ATOM     11  C   UNL     1      34.748  19.068 119.369 -0.19 -0.00    +0.000 A 
DOCKED: ATOM     12  CM  UNL     1      33.806  18.580 120.287 +0.00 -0.00    +0.000 AC
DOCKED: ATOM     13  CM  UNL     1      31.999  19.393 118.872 +0.00 -0.00    +0.000 AC
DOCKED: BRANCH   7  12
DOCKED: ATOM     14  C   UNL     1      29.149  19.725 118.357 -0.27 -0.00    +0.000 C 
DOCKED: BRANCH  12  13
DOCKED: ATOM     15  N   UNL     1      28.410  18.462 118.573 -0.30 -0.00    +0.000 N 
DOCKED: ATOM     16  H   UNL     1      28.584  18.278 119.562 -0.58 -0.00    +0.000 HD
DOCKED: BRANCH  13  15
DOCKED: ATOM     17  C   UNL     1      26.940  18.592 118.473 -0.31 -0.00    +0.000 C 
DOCKED: ATOM     18  C   UNL     1      26.411  19.957 118.917 -0.31 -0.00    +0.000 C 
DOCKED: ENDBRANCH  13  15
DOCKED: BRANCH  13  17
DOCKED: ATOM     19  C   UNL     1      28.979  17.238 117.954 -0.39 -0.00    +0.000 C 
DOCKED: ATOM     20  C   UNL     1      28.926  15.983 118.837 -0.40 +0.00    +0.000 C 
DOCKED: ENDBRANCH  13  17
DOCKED: ENDBRANCH  12  13
DOCKED: ENDBRANCH   7  12
DOCKED: ENDBRANCH   1   2
DOCKED: BRANCH   1  19
DOCKED: ATOM     21  O   UNL     1      37.165  17.304 119.817 -0.11 -0.00    +0.000 OA
DOCKED: BRANCH  19  21
DOCKED: ATOM     22  O   UNL     1      36.663  15.239 118.920 -0.24 -0.00    +0.000 OA
DOCKED: ATOM     23  C   UNL     1      36.999  15.920 119.927 -0.20 -0.00    +0.000 C 
DOCKED: ATOM     24  N   UNL     1      37.171  15.298 121.208 -0.24 -0.00    +0.000 N 
DOCKED: ATOM     25  H   UNL     1      37.315  15.882 121.988 +0.00 -0.00    +0.000 HD
DOCKED: BRANCH  22  24
DOCKED: ATOM     26  C   UNL     1      37.147  13.878 121.429 -0.34 -0.00    +0.000 A 
DOCKED: ATOM     27  C   UNL     1      37.594  13.016 120.418 -0.43 -0.00    +0.000 A 
DOCKED: ATOM     28  C   UNL     1      37.558  11.631 120.596 -0.37 -0.00    +0.000 A 
DOCKED: ATOM     29  C   UNL     1      37.050  11.077 121.786 -0.46 -0.00    +0.000 A 
DOCKED: ATOM     30  C   UNL     1      36.595  11.943 122.796 -0.59 -0.00    +0.000 A 
DOCKED: ATOM     31  C   UNL     1      36.633  13.329 122.616 -0.46 -0.00    +0.000 A 
DOCKED: ATOM     32  CM  UNL     1      37.096  12.479 121.607 +0.00 -0.00    +0.000 AC
DOCKED: BRANCH  27  30
DOCKED: ATOM     33  C   UNL     1      37.000   9.608 121.993 -0.62 -0.00    +0.000 C 
DOCKED: ATOM     34  N   UNL     1      37.199   9.029 123.287 -0.57 -0.00    +0.000 N 
DOCKED: ATOM     35  O   UNL     1      37.046   7.697 123.467 -2.67 -0.00    +0.000 OA
DOCKED: ATOM     36  O   UNL     1      36.793   8.848 121.007 -2.64 -0.00    +0.000 OA
DOCKED: ATOM     37  H   UNL     1      37.448   9.602 124.048 -0.55 -0.00    +0.000 HD
DOCKED: ENDBRANCH  27  30
DOCKED: ENDBRANCH  22  24
DOCKED: ENDBRANCH  19  21
DOCKED: ENDBRANCH   1  19
DOCKED: TORSDOF 9DOCKED: TER
DOCKED: ENDMDL
________________________________________________________________________________


	BEGINNING GENETIC ALGORITHM DOCKING 54 of 100
Run: 54 Seed: 276535037 1293805282 [ Run 54 of 100 GA/GALS ]
Beginning LAMARCKIAN GENETIC ALGORITHM (LGA), with a maximum of 2500000 energy evaluations.

Final-Value: -16.932


	FINAL GENETIC ALGORITHM DOCKED STATE
	_______________________________________________


Detailed state:  trans 35.835 17.271 120.729 quatxyzw -0.800081 0.013408 0.575715 0.168056 center 1.619 0.086 0.013 ntor 9 -32.8443 -144.7216 172.9670 -73.0906 -98.6936 -162.7634 178.7505 109.5908 59.6345
State:	 35.835  17.271 120.729  -0.812  0.014  0.584 160.650    -32.84 -144.72  172.97  -73.09  -98.69 -162.76  178.75  109.59   59.63

DOCKED: MODEL       54
DOCKED: USER    Run = 54
DOCKED: USER    DPF = ligand_dock.biased.dpf
DOCKED: USER  
DOCKED: USER    Estimated Free Energy of Binding    =  -12.47 kcal/mol  [=(1)+(2)+(3)-(4)]
DOCKED: USER    Estimated Inhibition Constant, Ki   =  725.77 pM (picomolar)  [Temperature = 298.15 K]
DOCKED: USER    
DOCKED: USER    (1) Final Intermolecular Energy     =  -15.15 kcal/mol
DOCKED: USER        vdW + Hbond + desolv Energy     =  -15.15 kcal/mol
DOCKED: USER        Electrostatic Energy            =   +0.00 kcal/mol
DOCKED: USER    (2) Final Total Internal Energy     =   -1.78 kcal/mol
DOCKED: USER    (3) Torsional Free Energy           =   +2.68 kcal/mol
DOCKED: USER    (4) Unbound System's Energy  [=(2)] =   -1.78 kcal/mol
DOCKED: USER    
DOCKED: USER    
DOCKED: USER    NEWDPF move ligand.dum.pdbqt
DOCKED: USER    NEWDPF about 1.619000 0.086000 0.013000
DOCKED: USER    NEWDPF tran0 35.834589 17.271112 120.729318
DOCKED: USER    NEWDPF quaternion0 -0.800081 0.013408 0.575715 0.168056
DOCKED: USER    NEWDPF axisangle0 -0.811625 0.013602 0.584021 160.650420
DOCKED: USER    NEWDPF quat0 -0.811625 0.013602 0.584021 160.650420
DOCKED: USER    NEWDPF dihe0 -32.84 -144.72 172.97 -73.09 -98.69 -162.76 178.75 109.59 59.63 
DOCKED: USER  keepresnum = 1 
DOCKED: USER  
DOCKED: REMARK  Name = 
DOCKED: REMARK  11 active torsions:
DOCKED: REMARK  status: ('A' for Active; 'I' for Inactive)
DOCKED: REMARK    1  A    between atoms: C_2  and  O_3
DOCKED: REMARK    2  A    between atoms: O_3  and  C_4
DOCKED: REMARK    3  A    between atoms: C_4  and  C_5
DOCKED: REMARK    4  A    between atoms: C_10  and  C_11
DOCKED: REMARK    5  A    between atoms: C_11  and  N_12
DOCKED: REMARK    6  A    between atoms: N_12  and  C_13
DOCKED: REMARK    7  A    between atoms: N_12  and  C_15
DOCKED: REMARK    8  A    between atoms: C_13  and  C_14
DOCKED: REMARK    9  A    between atoms: C_15  and  C_16
DOCKED: REMARK   10  A    between atoms: N_21  and  C_22
DOCKED: REMARK   11  A    between atoms: C_25  and  C_26
DOCKED: REMARK                            x       y       z     vdW  Elec       q    Type
DOCKED: REMARK                         _______ _______ _______ _____ _____    ______ ____
DOCKED: USER                              x       y       z     vdW  Elec       q    Type
DOCKED: USER                           _______ _______ _______ _____ _____    ______ ____
DOCKED: ROOT
DOCKED: ATOM      1  C   UNL     1      38.071  18.096 120.967 -0.08 -0.00    +0.000 C 
DOCKED: ENDROOT
DOCKED: BRANCH   1   2
DOCKED: ATOM      2  C   UNL     1      37.413  18.289 122.303 -0.11 -0.00    +0.000 A 
DOCKED: ATOM      3  C   UNL     1      38.160  18.713 123.412 -0.11 -0.00    +0.000 A 
DOCKED: ATOM      4  C   UNL     1      37.547  18.874 124.659 -0.15 -0.00    +0.000 A 
DOCKED: ATOM      5  C   UNL     1      36.181  18.599 124.814 -0.19 -0.00    +0.000 A 
DOCKED: ATOM      6  C   UNL     1      35.559  18.748 126.064 -0.19 -0.00    +0.000 A 
DOCKED: ATOM      7  C   UNL     1      34.199  18.438 126.223 -0.27 -0.00    +0.000 A 
DOCKED: ATOM      8  C   UNL     1      33.452  18.016 125.111 -0.21 -0.00    +0.000 A 
DOCKED: ATOM      9  C   UNL     1      34.062  17.872 123.861 -0.33 -0.00    +0.000 A 
DOCKED: ATOM     10  C   UNL     1      35.425  18.156 123.703 -0.26 -0.00    +0.000 A 
DOCKED: ATOM     11  C   UNL     1      36.047  18.005 122.454 -0.21 -0.00    +0.000 A 
DOCKED: ATOM     12  CM  UNL     1      36.796  18.440 123.558 -0.00 -0.00    +0.000 AC
DOCKED: ATOM     13  CM  UNL     1      34.813  18.304 124.963 -0.40 -0.00    +0.000 AC
DOCKED: BRANCH   7  12
DOCKED: ATOM     14  C   UNL     1      33.536  18.612 127.566 -0.23 -0.00    +0.000 C 
DOCKED: BRANCH  12  13
DOCKED: ATOM     15  N   UNL     1      32.441  17.634 127.747 -0.31 -0.00    +0.000 N 
DOCKED: ATOM     16  H   UNL     1      32.145  17.462 126.785 -0.32 -0.00    +0.000 HD
DOCKED: BRANCH  13  15
DOCKED: ATOM     17  C   UNL     1      32.881  16.311 128.241 -0.42 -0.00    +0.000 C 
DOCKED: ATOM     18  C   UNL     1      33.982  16.385 129.301 -0.22 -0.00    +0.000 C 
DOCKED: ENDBRANCH  13  15
DOCKED: BRANCH  13  17
DOCKED: ATOM     19  C   UNL     1      31.179  18.142 128.345 -0.34 -0.00    +0.000 C 
DOCKED: ATOM     20  C   UNL     1      30.025  17.130 128.374 -0.47 -0.00    +0.000 C 
DOCKED: ENDBRANCH  13  17
DOCKED: ENDBRANCH  12  13
DOCKED: ENDBRANCH   7  12
DOCKED: ENDBRANCH   1   2
DOCKED: BRANCH   1  19
DOCKED: ATOM     21  O   UNL     1      37.181  17.398 120.102 -0.11 -0.00    +0.000 OA
DOCKED: BRANCH  19  21
DOCKED: ATOM     22  O   UNL     1      36.092  15.469 119.460 -0.14 -0.00    +0.000 OA
DOCKED: ATOM     23  C   UNL     1      36.892  16.038 120.252 -0.19 -0.00    +0.000 C 
DOCKED: ATOM     24  N   UNL     1      37.481  15.317 121.342 -0.24 -0.00    +0.000 N 
DOCKED: ATOM     25  H   UNL     1      38.004  15.828 122.003 +0.00 -0.00    +0.000 HD
DOCKED: BRANCH  22  24
DOCKED: ATOM     26  C   UNL     1      37.361  13.898 121.535 -0.36 -0.00    +0.000 A 
DOCKED: ATOM     27  C   UNL     1      37.687  13.030 120.483 -0.43 -0.00    +0.000 A 
DOCKED: ATOM     28  C   UNL     1      37.554  11.648 120.633 -0.37 -0.00    +0.000 A 
DOCKED: ATOM     29  C   UNL     1      37.069  11.104 121.838 -0.46 -0.00    +0.000 A 
DOCKED: ATOM     30  C   UNL     1      36.737  11.977 122.890 -0.59 -0.00    +0.000 A 
DOCKED: ATOM     31  C   UNL     1      36.871  13.359 122.736 -0.49 -0.00    +0.000 A 
DOCKED: ATOM     32  CM  UNL     1      37.213  12.502 121.686 +0.00 -0.00    +0.000 AC
DOCKED: BRANCH  27  30
DOCKED: ATOM     33  C   UNL     1      36.919   9.638 122.017 -0.63 -0.00    +0.000 C 
DOCKED: ATOM     34  N   UNL     1      37.040   9.026 123.306 -0.62 -0.00    +0.000 N 
DOCKED: ATOM     35  O   UNL     1      36.796   7.705 123.457 -2.53 -0.00    +0.000 OA
DOCKED: ATOM     36  O   UNL     1      36.693   8.909 121.012 -2.61 -0.00    +0.000 OA
DOCKED: ATOM     37  H   UNL     1      37.301   9.570 124.083 -0.57 -0.00    +0.000 HD
DOCKED: ENDBRANCH  27  30
DOCKED: ENDBRANCH  22  24
DOCKED: ENDBRANCH  19  21
DOCKED: ENDBRANCH   1  19
DOCKED: TORSDOF 9DOCKED: TER
DOCKED: ENDMDL
________________________________________________________________________________


	BEGINNING GENETIC ALGORITHM DOCKING 55 of 100
Run: 55 Seed: 2104339889 501263866 [ Run 55 of 100 GA/GALS ]
Beginning LAMARCKIAN GENETIC ALGORITHM (LGA), with a maximum of 2500000 energy evaluations.

Final-Value: -16.510


	FINAL GENETIC ALGORITHM DOCKED STATE
	_______________________________________________


Detailed state:  trans 37.086 17.110 121.873 quatxyzw -0.081195 0.947578 -0.263754 0.161051 center 1.619 0.086 0.013 ntor 9 -106.1072 169.4226 -16.3474 -39.6869 -167.4172 -10.7885 -128.3850 -107.4835 -16.3807
State:	 37.086  17.110 121.873  -0.082  0.960 -0.267 161.464   -106.11  169.42  -16.35  -39.69 -167.42  -10.79 -128.38 -107.48  -16.38

DOCKED: MODEL       55
DOCKED: USER    Run = 55
DOCKED: USER    DPF = ligand_dock.biased.dpf
DOCKED: USER  
DOCKED: USER    Estimated Free Energy of Binding    =  -12.08 kcal/mol  [=(1)+(2)+(3)-(4)]
DOCKED: USER    Estimated Inhibition Constant, Ki   =    1.41 nM (nanomolar)  [Temperature = 298.15 K]
DOCKED: USER    
DOCKED: USER    (1) Final Intermolecular Energy     =  -14.76 kcal/mol
DOCKED: USER        vdW + Hbond + desolv Energy     =  -14.76 kcal/mol
DOCKED: USER        Electrostatic Energy            =   +0.00 kcal/mol
DOCKED: USER    (2) Final Total Internal Energy     =   -1.75 kcal/mol
DOCKED: USER    (3) Torsional Free Energy           =   +2.68 kcal/mol
DOCKED: USER    (4) Unbound System's Energy  [=(2)] =   -1.75 kcal/mol
DOCKED: USER    
DOCKED: USER    
DOCKED: USER    NEWDPF move ligand.dum.pdbqt
DOCKED: USER    NEWDPF about 1.619000 0.086000 0.013000
DOCKED: USER    NEWDPF tran0 37.085793 17.110030 121.872893
DOCKED: USER    NEWDPF quaternion0 -0.081195 0.947578 -0.263754 0.161051
DOCKED: USER    NEWDPF axisangle0 -0.082269 0.960111 -0.267243 161.464241
DOCKED: USER    NEWDPF quat0 -0.082269 0.960111 -0.267243 161.464241
DOCKED: USER    NEWDPF dihe0 -106.11 169.42 -16.35 -39.69 -167.42 -10.79 -128.38 -107.48 -16.38 
DOCKED: USER  keepresnum = 1 
DOCKED: USER  
DOCKED: REMARK  Name = 
DOCKED: REMARK  11 active torsions:
DOCKED: REMARK  status: ('A' for Active; 'I' for Inactive)
DOCKED: REMARK    1  A    between atoms: C_2  and  O_3
DOCKED: REMARK    2  A    between atoms: O_3  and  C_4
DOCKED: REMARK    3  A    between atoms: C_4  and  C_5
DOCKED: REMARK    4  A    between atoms: C_10  and  C_11
DOCKED: REMARK    5  A    between atoms: C_11  and  N_12
DOCKED: REMARK    6  A    between atoms: N_12  and  C_13
DOCKED: REMARK    7  A    between atoms: N_12  and  C_15
DOCKED: REMARK    8  A    between atoms: C_13  and  C_14
DOCKED: REMARK    9  A    between atoms: C_15  and  C_16
DOCKED: REMARK   10  A    between atoms: N_21  and  C_22
DOCKED: REMARK   11  A    between atoms: C_25  and  C_26
DOCKED: REMARK                            x       y       z     vdW  Elec       q    Type
DOCKED: REMARK                         _______ _______ _______ _____ _____    ______ ____
DOCKED: USER                              x       y       z     vdW  Elec       q    Type
DOCKED: USER                           _______ _______ _______ _____ _____    ______ ____
DOCKED: ROOT
DOCKED: ATOM      1  C   UNL     1      37.444  18.043 124.050 -0.21 -0.00    +0.000 C 
DOCKED: ENDROOT
DOCKED: BRANCH   1   2
DOCKED: ATOM      2  C   UNL     1      38.767  18.120 123.342 -0.15 -0.00    +0.000 A 
DOCKED: ATOM      3  C   UNL     1      39.165  19.302 122.700 -0.05 -0.00    +0.000 A 
DOCKED: ATOM      4  C   UNL     1      40.390  19.364 122.027 -0.04 -0.00    +0.000 A 
DOCKED: ATOM      5  C   UNL     1      41.225  18.238 121.976 -0.10 -0.00    +0.000 A 
DOCKED: ATOM      6  C   UNL     1      42.450  18.288 121.294 -0.09 -0.00    +0.000 A 
DOCKED: ATOM      7  C   UNL     1      43.268  17.149 121.216 -0.18 -0.00    +0.000 A 
DOCKED: ATOM      8  C   UNL     1      42.869  15.968 121.862 -0.34 -0.00    +0.000 A 
DOCKED: ATOM      9  C   UNL     1      41.653  15.912 122.550 -0.41 -0.00    +0.000 A 
DOCKED: ATOM     10  C   UNL     1      40.821  17.039 122.609 -0.23 -0.00    +0.000 A 
DOCKED: ATOM     11  C   UNL     1      39.595  16.988 123.289 -0.22 -0.00    +0.000 A 
DOCKED: ATOM     12  CM  UNL     1      39.994  18.176 122.657 +0.00 -0.00    +0.000 AC
DOCKED: ATOM     13  CM  UNL     1      42.048  17.099 121.918 +0.00 -0.00    +0.000 AC
DOCKED: BRANCH   7  12
DOCKED: ATOM     14  C   UNL     1      44.589  17.214 120.492 -0.16 -0.00    +0.000 C 
DOCKED: BRANCH  12  13
DOCKED: ATOM     15  N   UNL     1      45.620  16.423 121.199 -0.26 +0.00    +0.000 N 
DOCKED: ATOM     16  H   UNL     1      45.079  15.983 121.944 -0.02 +0.00    +0.000 HD
DOCKED: BRANCH  13  15
DOCKED: ATOM     17  C   UNL     1      46.163  15.293 120.417 -0.27 +0.00    +0.000 C 
DOCKED: ATOM     18  C   UNL     1      45.136  14.634 119.492 -0.44 +0.00    +0.000 C 
DOCKED: ENDBRANCH  13  15
DOCKED: BRANCH  13  17
DOCKED: ATOM     19  C   UNL     1      46.623  17.183 121.989 -0.27 +0.00    +0.000 C 
DOCKED: ATOM     20  C   UNL     1      46.783  16.720 123.444 -0.39 +0.00    +0.000 C 
DOCKED: ENDBRANCH  13  17
DOCKED: ENDBRANCH  12  13
DOCKED: ENDBRANCH   7  12
DOCKED: ENDBRANCH   1   2
DOCKED: BRANCH   1  19
DOCKED: ATOM     21  O   UNL     1      36.455  17.565 123.145 -0.22 -0.00    +0.000 OA
DOCKED: BRANCH  19  21
DOCKED: ATOM     22  O   UNL     1      36.376  16.006 121.447 -0.26 -0.00    +0.000 OA
DOCKED: ATOM     23  C   UNL     1      36.424  16.246 122.685 -0.32 -0.00    +0.000 C 
DOCKED: ATOM     24  N   UNL     1      36.399  15.176 123.640 -0.43 -0.00    +0.000 N 
DOCKED: ATOM     25  H   UNL     1      36.318  15.412 124.593 -0.04 -0.00    +0.000 HD
DOCKED: BRANCH  22  24
DOCKED: ATOM     26  C   UNL     1      36.487  13.782 123.299 -0.49 -0.00    +0.000 A 
DOCKED: ATOM     27  C   UNL     1      35.962  12.824 124.178 -0.33 -0.00    +0.000 A 
DOCKED: ATOM     28  C   UNL     1      36.057  11.462 123.884 -0.55 -0.00    +0.000 A 
DOCKED: ATOM     29  C   UNL     1      36.702  11.028 122.711 -0.59 -0.00    +0.000 A 
DOCKED: ATOM     30  C   UNL     1      37.235  11.990 121.834 -0.45 -0.00    +0.000 A 
DOCKED: ATOM     31  C   UNL     1      37.138  13.353 122.130 -0.44 -0.00    +0.000 A 
DOCKED: ATOM     32  CM  UNL     1      36.597  12.406 123.006 +0.00 -0.00    +0.000 AC
DOCKED: BRANCH  27  30
DOCKED: ATOM     33  C   UNL     1      36.816   9.584 122.383 -0.67 -0.00    +0.000 C 
DOCKED: ATOM     34  N   UNL     1      37.069   8.605 123.396 -0.67 -0.00    +0.000 N 
DOCKED: ATOM     35  O   UNL     1      37.065   7.288 123.086 -2.27 -0.00    +0.000 OA
DOCKED: ATOM     36  O   UNL     1      36.702   9.209 121.184 -2.63 -0.00    +0.000 OA
DOCKED: ATOM     37  H   UNL     1      37.247   8.891 124.321 -0.57 -0.00    +0.000 HD
DOCKED: ENDBRANCH  27  30
DOCKED: ENDBRANCH  22  24
DOCKED: ENDBRANCH  19  21
DOCKED: ENDBRANCH   1  19
DOCKED: TORSDOF 9DOCKED: TER
DOCKED: ENDMDL
________________________________________________________________________________


	BEGINNING GENETIC ALGORITHM DOCKING 56 of 100
Run: 56 Seed: 1626714075 193194754 [ Run 56 of 100 GA/GALS ]
Beginning LAMARCKIAN GENETIC ALGORITHM (LGA), with a maximum of 2500000 energy evaluations.

Final-Value: -16.078


	FINAL GENETIC ALGORITHM DOCKED STATE
	_______________________________________________


Detailed state:  trans 36.894 16.818 123.744 quatxyzw -0.053030 -0.349677 0.934611 0.037627 center 1.619 0.086 0.013 ntor 9 -167.5173 92.7834 -180.0000 -180.0000 -40.5403 168.3239 -45.7297 111.9860 123.8209
State:	 36.894  16.818 123.744  -0.053 -0.350  0.935 175.687   -167.52   92.78 -180.00 -180.00  -40.54  168.32  -45.73  111.99  123.82

DOCKED: MODEL       56
DOCKED: USER    Run = 56
DOCKED: USER    DPF = ligand_dock.biased.dpf
DOCKED: USER  
DOCKED: USER    Estimated Free Energy of Binding    =  -11.79 kcal/mol  [=(1)+(2)+(3)-(4)]
DOCKED: USER    Estimated Inhibition Constant, Ki   =    2.26 nM (nanomolar)  [Temperature = 298.15 K]
DOCKED: USER    
DOCKED: USER    (1) Final Intermolecular Energy     =  -14.48 kcal/mol
DOCKED: USER        vdW + Hbond + desolv Energy     =  -14.48 kcal/mol
DOCKED: USER        Electrostatic Energy            =   +0.00 kcal/mol
DOCKED: USER    (2) Final Total Internal Energy     =   -1.60 kcal/mol
DOCKED: USER    (3) Torsional Free Energy           =   +2.68 kcal/mol
DOCKED: USER    (4) Unbound System's Energy  [=(2)] =   -1.60 kcal/mol
DOCKED: USER    
DOCKED: USER    
DOCKED: USER    NEWDPF move ligand.dum.pdbqt
DOCKED: USER    NEWDPF about 1.619000 0.086000 0.013000
DOCKED: USER    NEWDPF tran0 36.893573 16.818353 123.743700
DOCKED: USER    NEWDPF quaternion0 -0.053030 -0.349677 0.934611 0.037627
DOCKED: USER    NEWDPF axisangle0 -0.053068 -0.349925 0.935273 175.687197
DOCKED: USER    NEWDPF quat0 -0.053068 -0.349925 0.935273 175.687197
DOCKED: USER    NEWDPF dihe0 -167.52 92.78 -180.00 -180.00 -40.54 168.32 -45.73 111.99 123.82 
DOCKED: USER  keepresnum = 1 
DOCKED: USER  
DOCKED: REMARK  Name = 
DOCKED: REMARK  11 active torsions:
DOCKED: REMARK  status: ('A' for Active; 'I' for Inactive)
DOCKED: REMARK    1  A    between atoms: C_2  and  O_3
DOCKED: REMARK    2  A    between atoms: O_3  and  C_4
DOCKED: REMARK    3  A    between atoms: C_4  and  C_5
DOCKED: REMARK    4  A    between atoms: C_10  and  C_11
DOCKED: REMARK    5  A    between atoms: C_11  and  N_12
DOCKED: REMARK    6  A    between atoms: N_12  and  C_13
DOCKED: REMARK    7  A    between atoms: N_12  and  C_15
DOCKED: REMARK    8  A    between atoms: C_13  and  C_14
DOCKED: REMARK    9  A    between atoms: C_15  and  C_16
DOCKED: REMARK   10  A    between atoms: N_21  and  C_22
DOCKED: REMARK   11  A    between atoms: C_25  and  C_26
DOCKED: REMARK                            x       y       z     vdW  Elec       q    Type
DOCKED: REMARK                         _______ _______ _______ _____ _____    ______ ____
DOCKED: USER                              x       y       z     vdW  Elec       q    Type
DOCKED: USER                           _______ _______ _______ _____ _____    ______ ____
DOCKED: ROOT
DOCKED: ATOM      1  C   UNL     1      36.674  18.595 122.151 -0.17 -0.00    +0.000 C 
DOCKED: ENDROOT
DOCKED: BRANCH   1   2
DOCKED: ATOM      2  C   UNL     1      38.145  18.458 122.422 -0.09 -0.00    +0.000 A 
DOCKED: ATOM      3  C   UNL     1      38.891  19.553 122.882 -0.05 -0.00    +0.000 A 
DOCKED: ATOM      4  C   UNL     1      40.265  19.427 123.115 -0.07 -0.00    +0.000 A 
DOCKED: ATOM      5  C   UNL     1      40.911  18.206 122.876 -0.16 -0.00    +0.000 A 
DOCKED: ATOM      6  C   UNL     1      42.291  18.072 123.098 -0.23 -0.00    +0.000 A 
DOCKED: ATOM      7  C   UNL     1      42.941  16.858 122.825 -0.36 -0.00    +0.000 A 
DOCKED: ATOM      8  C   UNL     1      42.192  15.762 122.367 -0.42 -0.00    +0.000 A 
DOCKED: ATOM      9  C   UNL     1      40.816  15.884 122.151 -0.33 -0.00    +0.000 A 
DOCKED: ATOM     10  C   UNL     1      40.167  17.102 122.398 -0.18 -0.00    +0.000 A 
DOCKED: ATOM     11  C   UNL     1      38.788  17.235 122.175 -0.14 -0.00    +0.000 A 
DOCKED: ATOM     12  CM  UNL     1      39.528  18.331 122.645 +0.00 -0.00    +0.000 AC
DOCKED: ATOM     13  CM  UNL     1      41.553  16.980 122.619 +0.00 -0.00    +0.000 AC
DOCKED: BRANCH   7  12
DOCKED: ATOM     14  C   UNL     1      44.421  16.719 123.077 -0.14 -0.00    +0.000 C 
DOCKED: BRANCH  12  13
DOCKED: ATOM     15  N   UNL     1      45.199  17.063 121.867 -0.26 -0.00    +0.000 N 
DOCKED: ATOM     16  H   UNL     1      45.882  16.306 121.829 -0.02 +0.00    +0.000 HD
DOCKED: BRANCH  13  15
DOCKED: ATOM     17  C   UNL     1      44.443  16.945 120.602 -0.19 -0.00    +0.000 C 
DOCKED: ATOM     18  C   UNL     1      44.638  15.604 119.891 -0.32 +0.00    +0.000 C 
DOCKED: ENDBRANCH  13  15
DOCKED: BRANCH  13  17
DOCKED: ATOM     19  C   UNL     1      46.093  18.246 121.959 -0.18 -0.00    +0.000 C 
DOCKED: ATOM     20  C   UNL     1      47.043  18.244 123.165 -0.31 -0.00    +0.000 C 
DOCKED: ENDBRANCH  13  17
DOCKED: ENDBRANCH  12  13
DOCKED: ENDBRANCH   7  12
DOCKED: ENDBRANCH   1   2
DOCKED: BRANCH   1  19
DOCKED: ATOM     21  O   UNL     1      35.974  17.560 122.834 -0.25 -0.00    +0.000 OA
DOCKED: BRANCH  19  21
DOCKED: ATOM     22  O   UNL     1      35.965  15.894 121.238 -0.14 -0.00    +0.000 OA
DOCKED: ATOM     23  C   UNL     1      36.051  16.217 122.455 -0.30 -0.00    +0.000 C 
DOCKED: ATOM     24  N   UNL     1      36.180  15.213 123.472 -0.43 -0.00    +0.000 N 
DOCKED: ATOM     25  H   UNL     1      36.123  15.501 124.412 -0.04 -0.00    +0.000 HD
DOCKED: BRANCH  22  24
DOCKED: ATOM     26  C   UNL     1      36.388  13.815 123.209 -0.48 -0.00    +0.000 A 
DOCKED: ATOM     27  C   UNL     1      36.954  13.421 121.988 -0.40 -0.00    +0.000 A 
DOCKED: ATOM     28  C   UNL     1      37.144  12.068 121.696 -0.48 -0.00    +0.000 A 
DOCKED: ATOM     29  C   UNL     1      36.749  11.078 122.614 -0.58 -0.00    +0.000 A 
DOCKED: ATOM     30  C   UNL     1      36.175  11.475 123.835 -0.59 -0.00    +0.000 A 
DOCKED: ATOM     31  C   UNL     1      35.987  12.829 124.125 -0.36 -0.00    +0.000 A 
DOCKED: ATOM     32  CM  UNL     1      36.566  12.447 122.911 +0.00 -0.00    +0.000 AC
DOCKED: BRANCH  27  30
DOCKED: ATOM     33  C   UNL     1      36.940   9.635 122.321 -0.63 -0.00    +0.000 C 
DOCKED: ATOM     34  N   UNL     1      36.996   8.660 123.369 -0.66 -0.00    +0.000 N 
DOCKED: ATOM     35  O   UNL     1      37.067   7.343 123.069 -2.32 -0.00    +0.000 OA
DOCKED: ATOM     36  O   UNL     1      37.069   9.255 121.124 -2.70 -0.00    +0.000 OA
DOCKED: ATOM     37  H   UNL     1      36.984   8.951 124.309 -0.51 -0.00    +0.000 HD
DOCKED: ENDBRANCH  27  30
DOCKED: ENDBRANCH  22  24
DOCKED: ENDBRANCH  19  21
DOCKED: ENDBRANCH   1  19
DOCKED: TORSDOF 9DOCKED: TER
DOCKED: ENDMDL
________________________________________________________________________________


	BEGINNING GENETIC ALGORITHM DOCKING 57 of 100
Run: 57 Seed: 668288805 1727989123 [ Run 57 of 100 GA/GALS ]
Beginning LAMARCKIAN GENETIC ALGORITHM (LGA), with a maximum of 2500000 energy evaluations.

Final-Value: -17.106


	FINAL GENETIC ALGORITHM DOCKED STATE
	_______________________________________________


Detailed state:  trans 34.992 16.041 122.729 quatxyzw -0.143367 0.681890 -0.552875 0.456948 center 1.619 0.086 0.013 ntor 9 97.4524 61.6840 152.8022 -70.3094 -154.3341 -84.3421 -166.1275 -140.7922 122.6251
State:	 34.992  16.041 122.729  -0.161  0.767 -0.622 125.619     97.45   61.68  152.80  -70.31 -154.33  -84.34 -166.13 -140.79  122.63

DOCKED: MODEL       57
DOCKED: USER    Run = 57
DOCKED: USER    DPF = ligand_dock.biased.dpf
DOCKED: USER  
DOCKED: USER    Estimated Free Energy of Binding    =  -12.46 kcal/mol  [=(1)+(2)+(3)-(4)]
DOCKED: USER    Estimated Inhibition Constant, Ki   =  736.51 pM (picomolar)  [Temperature = 298.15 K]
DOCKED: USER    
DOCKED: USER    (1) Final Intermolecular Energy     =  -15.14 kcal/mol
DOCKED: USER        vdW + Hbond + desolv Energy     =  -15.14 kcal/mol
DOCKED: USER        Electrostatic Energy            =   +0.00 kcal/mol
DOCKED: USER    (2) Final Total Internal Energy     =   -1.96 kcal/mol
DOCKED: USER    (3) Torsional Free Energy           =   +2.68 kcal/mol
DOCKED: USER    (4) Unbound System's Energy  [=(2)] =   -1.96 kcal/mol
DOCKED: USER    
DOCKED: USER    
DOCKED: USER    NEWDPF move ligand.dum.pdbqt
DOCKED: USER    NEWDPF about 1.619000 0.086000 0.013000
DOCKED: USER    NEWDPF tran0 34.991840 16.041212 122.729223
DOCKED: USER    NEWDPF quaternion0 -0.143367 0.681890 -0.552875 0.456948
DOCKED: USER    NEWDPF axisangle0 -0.161179 0.766605 -0.621561 125.619322
DOCKED: USER    NEWDPF quat0 -0.161179 0.766605 -0.621561 125.619322
DOCKED: USER    NEWDPF dihe0 97.45 61.68 152.80 -70.31 -154.33 -84.34 -166.13 -140.79 122.63 
DOCKED: USER  keepresnum = 1 
DOCKED: USER  
DOCKED: REMARK  Name = 
DOCKED: REMARK  11 active torsions:
DOCKED: REMARK  status: ('A' for Active; 'I' for Inactive)
DOCKED: REMARK    1  A    between atoms: C_2  and  O_3
DOCKED: REMARK    2  A    between atoms: O_3  and  C_4
DOCKED: REMARK    3  A    between atoms: C_4  and  C_5
DOCKED: REMARK    4  A    between atoms: C_10  and  C_11
DOCKED: REMARK    5  A    between atoms: C_11  and  N_12
DOCKED: REMARK    6  A    between atoms: N_12  and  C_13
DOCKED: REMARK    7  A    between atoms: N_12  and  C_15
DOCKED: REMARK    8  A    between atoms: C_13  and  C_14
DOCKED: REMARK    9  A    between atoms: C_15  and  C_16
DOCKED: REMARK   10  A    between atoms: N_21  and  C_22
DOCKED: REMARK   11  A    between atoms: C_25  and  C_26
DOCKED: REMARK                            x       y       z     vdW  Elec       q    Type
DOCKED: REMARK                         _______ _______ _______ _____ _____    ______ ____
DOCKED: USER                              x       y       z     vdW  Elec       q    Type
DOCKED: USER                           _______ _______ _______ _____ _____    ______ ____
DOCKED: ROOT
DOCKED: ATOM      1  C   UNL     1      36.117  18.115 123.144 -0.24 -0.00    +0.000 C 
DOCKED: ENDROOT
DOCKED: BRANCH   1   2
DOCKED: ATOM      2  C   UNL     1      36.776  17.520 121.933 -0.15 -0.00    +0.000 A 
DOCKED: ATOM      3  C   UNL     1      38.162  17.302 121.910 -0.12 -0.00    +0.000 A 
DOCKED: ATOM      4  C   UNL     1      38.775  16.764 120.773 -0.11 -0.00    +0.000 A 
DOCKED: ATOM      5  C   UNL     1      38.010  16.451 119.640 -0.12 -0.00    +0.000 A 
DOCKED: ATOM      6  C   UNL     1      38.617  15.920 118.492 -0.13 -0.00    +0.000 A 
DOCKED: ATOM      7  C   UNL     1      37.853  15.640 117.348 -0.14 -0.00    +0.000 A 
DOCKED: ATOM      8  C   UNL     1      36.466  15.856 117.374 -0.15 -0.00    +0.000 A 
DOCKED: ATOM      9  C   UNL     1      35.851  16.378 118.517 -0.13 -0.00    +0.000 A 
DOCKED: ATOM     10  C   UNL     1      36.614  16.683 119.653 -0.14 -0.00    +0.000 A 
DOCKED: ATOM     11  C   UNL     1      36.006  17.215 120.800 -0.18 -0.00    +0.000 A 
DOCKED: ATOM     12  CM  UNL     1      37.391  16.989 120.785 +0.00 -0.00    +0.000 AC
DOCKED: ATOM     13  CM  UNL     1      37.235  16.155 118.504 +0.00 -0.00    +0.000 AC
DOCKED: BRANCH   7  12
DOCKED: ATOM     14  C   UNL     1      38.512  15.059 116.122 -0.25 -0.00    +0.000 C 
DOCKED: BRANCH  12  13
DOCKED: ATOM     15  N   UNL     1      37.538  14.301 115.306 -0.28 -0.00    +0.000 N 
DOCKED: ATOM     16  H   UNL     1      36.839  14.034 116.001 -0.01 -0.00    +0.000 HD
DOCKED: BRANCH  13  15
DOCKED: ATOM     17  C   UNL     1      36.794  15.123 114.328 -0.18 -0.00    +0.000 C 
DOCKED: ATOM     18  C   UNL     1      35.980  14.300 113.326 -0.23 -0.00    +0.000 C 
DOCKED: ENDBRANCH  13  15
DOCKED: BRANCH  13  17
DOCKED: ATOM     19  C   UNL     1      37.970  12.969 114.812 -0.47 -0.00    +0.000 C 
DOCKED: ATOM     20  C   UNL     1      39.140  12.343 115.584 -0.52 -0.00    +0.000 C 
DOCKED: ENDBRANCH  13  17
DOCKED: ENDBRANCH  12  13
DOCKED: ENDBRANCH   7  12
DOCKED: ENDBRANCH   1   2
DOCKED: BRANCH   1  19
DOCKED: ATOM     21  O   UNL     1      35.009  17.305 123.521 -0.37 -0.00    +0.000 OA
DOCKED: BRANCH  19  21
DOCKED: ATOM     22  O   UNL     1      33.948  15.256 123.503 -0.64 -0.00    +0.000 OA
DOCKED: ATOM     23  C   UNL     1      35.025  15.910 123.428 -0.48 -0.00    +0.000 C 
DOCKED: ATOM     24  N   UNL     1      36.284  15.235 123.295 -0.41 -0.00    +0.000 N 
DOCKED: ATOM     25  H   UNL     1      37.104  15.776 123.361 -0.01 -0.00    +0.000 HD
DOCKED: BRANCH  22  24
DOCKED: ATOM     26  C   UNL     1      36.427  13.823 123.070 -0.47 -0.00    +0.000 A 
DOCKED: ATOM     27  C   UNL     1      37.267  13.371 122.042 -0.44 -0.00    +0.000 A 
DOCKED: ATOM     28  C   UNL     1      37.404  12.005 121.785 -0.40 -0.00    +0.000 A 
DOCKED: ATOM     29  C   UNL     1      36.685  11.060 122.539 -0.58 -0.00    +0.000 A 
DOCKED: ATOM     30  C   UNL     1      35.838  11.516 123.566 -0.56 -0.00    +0.000 A 
DOCKED: ATOM     31  C   UNL     1      35.702  12.883 123.822 -0.38 -0.00    +0.000 A 
DOCKED: ATOM     32  CM  UNL     1      36.553  12.443 122.804 +0.00 -0.00    +0.000 AC
DOCKED: BRANCH  27  30
DOCKED: ATOM     33  C   UNL     1      36.815   9.604 122.280 -0.67 -0.00    +0.000 C 
DOCKED: ATOM     34  N   UNL     1      37.064   8.676 123.341 -0.66 -0.00    +0.000 N 
DOCKED: ATOM     35  O   UNL     1      37.076   7.346 123.092 -2.33 -0.00    +0.000 OA
DOCKED: ATOM     36  O   UNL     1      36.720   9.173 121.098 -2.62 -0.00    +0.000 OA
DOCKED: ATOM     37  H   UNL     1      37.227   9.006 124.253 -0.58 -0.00    +0.000 HD
DOCKED: ENDBRANCH  27  30
DOCKED: ENDBRANCH  22  24
DOCKED: ENDBRANCH  19  21
DOCKED: ENDBRANCH   1  19
DOCKED: TORSDOF 9DOCKED: TER
DOCKED: ENDMDL
________________________________________________________________________________


	BEGINNING GENETIC ALGORITHM DOCKING 58 of 100
Run: 58 Seed: 1026727311 1409608300 [ Run 58 of 100 GA/GALS ]
Beginning LAMARCKIAN GENETIC ALGORITHM (LGA), with a maximum of 2500000 energy evaluations.

Final-Value: -17.136


	FINAL GENETIC ALGORITHM DOCKED STATE
	_______________________________________________


Detailed state:  trans 36.326 16.693 124.829 quatxyzw 0.026767 0.243394 -0.969194 -0.026575 center 1.619 0.086 0.013 ntor 9 -179.5137 -3.8558 167.5009 -92.3122 -46.1825 -34.6335 158.6719 123.2423 164.0867
State:	 36.326  16.693 124.829   0.027  0.243 -0.970 -176.954   -179.51   -3.86  167.50  -92.31  -46.18  -34.63  158.67  123.24  164.09

DOCKED: MODEL       58
DOCKED: USER    Run = 58
DOCKED: USER    DPF = ligand_dock.biased.dpf
DOCKED: USER  
DOCKED: USER    Estimated Free Energy of Binding    =  -12.68 kcal/mol  [=(1)+(2)+(3)-(4)]
DOCKED: USER    Estimated Inhibition Constant, Ki   =  503.32 pM (picomolar)  [Temperature = 298.15 K]
DOCKED: USER    
DOCKED: USER    (1) Final Intermolecular Energy     =  -15.37 kcal/mol
DOCKED: USER        vdW + Hbond + desolv Energy     =  -15.37 kcal/mol
DOCKED: USER        Electrostatic Energy            =   +0.00 kcal/mol
DOCKED: USER    (2) Final Total Internal Energy     =   -1.77 kcal/mol
DOCKED: USER    (3) Torsional Free Energy           =   +2.68 kcal/mol
DOCKED: USER    (4) Unbound System's Energy  [=(2)] =   -1.77 kcal/mol
DOCKED: USER    
DOCKED: USER    
DOCKED: USER    NEWDPF move ligand.dum.pdbqt
DOCKED: USER    NEWDPF about 1.619000 0.086000 0.013000
DOCKED: USER    NEWDPF tran0 36.326012 16.692813 124.829158
DOCKED: USER    NEWDPF quaternion0 0.026767 0.243394 -0.969194 -0.026575
DOCKED: USER    NEWDPF axisangle0 0.026776 0.243480 -0.969536 -176.954353
DOCKED: USER    NEWDPF quat0 0.026776 0.243480 -0.969536 -176.954353
DOCKED: USER    NEWDPF dihe0 -179.51 -3.86 167.50 -92.31 -46.18 -34.63 158.67 123.24 164.09 
DOCKED: USER  keepresnum = 1 
DOCKED: USER  
DOCKED: REMARK  Name = 
DOCKED: REMARK  11 active torsions:
DOCKED: REMARK  status: ('A' for Active; 'I' for Inactive)
DOCKED: REMARK    1  A    between atoms: C_2  and  O_3
DOCKED: REMARK    2  A    between atoms: O_3  and  C_4
DOCKED: REMARK    3  A    between atoms: C_4  and  C_5
DOCKED: REMARK    4  A    between atoms: C_10  and  C_11
DOCKED: REMARK    5  A    between atoms: C_11  and  N_12
DOCKED: REMARK    6  A    between atoms: N_12  and  C_13
DOCKED: REMARK    7  A    between atoms: N_12  and  C_15
DOCKED: REMARK    8  A    between atoms: C_13  and  C_14
DOCKED: REMARK    9  A    between atoms: C_15  and  C_16
DOCKED: REMARK   10  A    between atoms: N_21  and  C_22
DOCKED: REMARK   11  A    between atoms: C_25  and  C_26
DOCKED: REMARK                            x       y       z     vdW  Elec       q    Type
DOCKED: REMARK                         _______ _______ _______ _____ _____    ______ ____
DOCKED: USER                              x       y       z     vdW  Elec       q    Type
DOCKED: USER                           _______ _______ _______ _____ _____    ______ ____
DOCKED: ROOT
DOCKED: ATOM      1  C   UNL     1      36.039  18.076 122.895 -0.24 -0.00    +0.000 C 
DOCKED: ENDROOT
DOCKED: BRANCH   1   2
DOCKED: ATOM      2  C   UNL     1      37.521  17.971 123.114 -0.15 -0.00    +0.000 A 
DOCKED: ATOM      3  C   UNL     1      38.168  18.806 124.037 -0.13 -0.00    +0.000 A 
DOCKED: ATOM      4  C   UNL     1      39.551  18.717 124.225 -0.16 -0.00    +0.000 A 
DOCKED: ATOM      5  C   UNL     1      40.307  17.800 123.480 -0.22 -0.00    +0.000 A 
DOCKED: ATOM      6  C   UNL     1      41.696  17.710 123.655 -0.29 -0.00    +0.000 A 
DOCKED: ATOM      7  C   UNL     1      42.454  16.816 122.883 -0.36 -0.00    +0.000 A 
DOCKED: ATOM      8  C   UNL     1      41.805  15.978 121.962 -0.34 -0.00    +0.000 A 
DOCKED: ATOM      9  C   UNL     1      40.420  16.055 121.786 -0.25 -0.00    +0.000 A 
DOCKED: ATOM     10  C   UNL     1      39.663  16.966 122.537 -0.19 -0.00    +0.000 A 
DOCKED: ATOM     11  C   UNL     1      38.273  17.056 122.361 -0.16 -0.00    +0.000 A 
DOCKED: ATOM     12  CM  UNL     1      38.914  17.886 123.293 +0.00 -0.00    +0.000 AC
DOCKED: ATOM     13  CM  UNL     1      41.058  16.887 122.717 +0.00 -0.00    +0.000 AC
DOCKED: BRANCH   7  12
DOCKED: ATOM     14  C   UNL     1      43.945  16.717 123.085 -0.25 -0.00    +0.000 C 
DOCKED: BRANCH  12  13
DOCKED: ATOM     15  N   UNL     1      44.670  17.537 122.090 -0.25 -0.00    +0.000 N 
DOCKED: ATOM     16  H   UNL     1      44.208  17.276 121.219 +0.00 -0.00    +0.000 HD
DOCKED: BRANCH  13  15
DOCKED: ATOM     17  C   UNL     1      44.434  18.992 122.213 -0.15 -0.00    +0.000 C 
DOCKED: ATOM     18  C   UNL     1      43.552  19.568 121.103 -0.05 -0.00    +0.000 C 
DOCKED: ENDBRANCH  13  15
DOCKED: BRANCH  13  17
DOCKED: ATOM     19  C   UNL     1      46.073  17.149 121.794 -0.27 +0.00    +0.000 C 
DOCKED: ATOM     20  C   UNL     1      46.931  16.839 123.029 -0.42 +0.00    +0.000 C 
DOCKED: ENDBRANCH  13  17
DOCKED: ENDBRANCH  12  13
DOCKED: ENDBRANCH   7  12
DOCKED: ENDBRANCH   1   2
DOCKED: BRANCH   1  19
DOCKED: ATOM     21  O   UNL     1      35.367  17.234 123.825 -0.34 -0.00    +0.000 OA
DOCKED: BRANCH  19  21
DOCKED: ATOM     22  O   UNL     1      35.286  15.218 124.942 -0.50 -0.00    +0.000 OA
DOCKED: ATOM     23  C   UNL     1      35.588  15.856 123.896 -0.47 -0.00    +0.000 C 
DOCKED: ATOM     24  N   UNL     1      36.203  15.191 122.784 -0.35 -0.00    +0.000 N 
DOCKED: ATOM     25  H   UNL     1      36.529  15.747 122.039 -0.01 -0.00    +0.000 HD
DOCKED: BRANCH  22  24
DOCKED: ATOM     26  C   UNL     1      36.374  13.768 122.684 -0.38 -0.00    +0.000 A 
DOCKED: ATOM     27  C   UNL     1      36.998  13.228 121.549 -0.39 -0.00    +0.000 A 
DOCKED: ATOM     28  C   UNL     1      37.154  11.846 121.414 -0.47 -0.00    +0.000 A 
DOCKED: ATOM     29  C   UNL     1      36.667  10.972 122.403 -0.58 -0.00    +0.000 A 
DOCKED: ATOM     30  C   UNL     1      36.036  11.516 123.537 -0.61 -0.00    +0.000 A 
DOCKED: ATOM     31  C   UNL     1      35.882  12.898 123.671 -0.51 -0.00    +0.000 A 
DOCKED: ATOM     32  CM  UNL     1      36.518  12.371 122.543 +0.00 -0.00    +0.000 AC
DOCKED: BRANCH  27  30
DOCKED: ATOM     33  C   UNL     1      36.821   9.501 122.276 -0.68 -0.00    +0.000 C 
DOCKED: ATOM     34  N   UNL     1      37.042   8.671 123.422 -0.65 -0.00    +0.000 N 
DOCKED: ATOM     35  O   UNL     1      37.076   7.325 123.291 -2.36 -0.00    +0.000 OA
DOCKED: ATOM     36  O   UNL     1      36.770   8.967 121.134 -2.63 -0.00    +0.000 OA
DOCKED: ATOM     37  H   UNL     1      37.171   9.082 124.307 -0.56 -0.00    +0.000 HD
DOCKED: ENDBRANCH  27  30
DOCKED: ENDBRANCH  22  24
DOCKED: ENDBRANCH  19  21
DOCKED: ENDBRANCH   1  19
DOCKED: TORSDOF 9DOCKED: TER
DOCKED: ENDMDL
________________________________________________________________________________


	BEGINNING GENETIC ALGORITHM DOCKING 59 of 100
Run: 59 Seed: 1689289291 424869546 [ Run 59 of 100 GA/GALS ]
Beginning LAMARCKIAN GENETIC ALGORITHM (LGA), with a maximum of 2500000 energy evaluations.

Final-Value: -16.390


	FINAL GENETIC ALGORITHM DOCKED STATE
	_______________________________________________


Detailed state:  trans 37.861 16.429 122.697 quatxyzw -0.597536 0.223652 -0.675850 0.368995 center 1.619 0.086 0.013 ntor 9 157.5449 74.8778 162.9691 -50.5844 -2.0372 99.7257 93.9460 165.3652 12.2574
State:	 37.861  16.429 122.697  -0.643  0.241 -0.727 136.693    157.54   74.88  162.97  -50.58   -2.04   99.73   93.95  165.37   12.26

DOCKED: MODEL       59
DOCKED: USER    Run = 59
DOCKED: USER    DPF = ligand_dock.biased.dpf
DOCKED: USER  
DOCKED: USER    Estimated Free Energy of Binding    =  -11.72 kcal/mol  [=(1)+(2)+(3)-(4)]
DOCKED: USER    Estimated Inhibition Constant, Ki   =    2.56 nM (nanomolar)  [Temperature = 298.15 K]
DOCKED: USER    
DOCKED: USER    (1) Final Intermolecular Energy     =  -14.41 kcal/mol
DOCKED: USER        vdW + Hbond + desolv Energy     =  -14.41 kcal/mol
DOCKED: USER        Electrostatic Energy            =   +0.00 kcal/mol
DOCKED: USER    (2) Final Total Internal Energy     =   -1.98 kcal/mol
DOCKED: USER    (3) Torsional Free Energy           =   +2.68 kcal/mol
DOCKED: USER    (4) Unbound System's Energy  [=(2)] =   -1.98 kcal/mol
DOCKED: USER    
DOCKED: USER    
DOCKED: USER    NEWDPF move ligand.dum.pdbqt
DOCKED: USER    NEWDPF about 1.619000 0.086000 0.013000
DOCKED: USER    NEWDPF tran0 37.860801 16.429431 122.696819
DOCKED: USER    NEWDPF quaternion0 -0.597536 0.223652 -0.675850 0.368995
DOCKED: USER    NEWDPF axisangle0 -0.642905 0.240634 -0.727165 136.692660
DOCKED: USER    NEWDPF quat0 -0.642905 0.240634 -0.727165 136.692660
DOCKED: USER    NEWDPF dihe0 157.54 74.88 162.97 -50.58 -2.04 99.73 93.95 165.37 12.26 
DOCKED: USER  keepresnum = 1 
DOCKED: USER  
DOCKED: REMARK  Name = 
DOCKED: REMARK  11 active torsions:
DOCKED: REMARK  status: ('A' for Active; 'I' for Inactive)
DOCKED: REMARK    1  A    between atoms: C_2  and  O_3
DOCKED: REMARK    2  A    between atoms: O_3  and  C_4
DOCKED: REMARK    3  A    between atoms: C_4  and  C_5
DOCKED: REMARK    4  A    between atoms: C_10  and  C_11
DOCKED: REMARK    5  A    between atoms: C_11  and  N_12
DOCKED: REMARK    6  A    between atoms: N_12  and  C_13
DOCKED: REMARK    7  A    between atoms: N_12  and  C_15
DOCKED: REMARK    8  A    between atoms: C_13  and  C_14
DOCKED: REMARK    9  A    between atoms: C_15  and  C_16
DOCKED: REMARK   10  A    between atoms: N_21  and  C_22
DOCKED: REMARK   11  A    between atoms: C_25  and  C_26
DOCKED: REMARK                            x       y       z     vdW  Elec       q    Type
DOCKED: REMARK                         _______ _______ _______ _____ _____    ______ ____
DOCKED: USER                              x       y       z     vdW  Elec       q    Type
DOCKED: USER                           _______ _______ _______ _____ _____    ______ ____
DOCKED: ROOT
DOCKED: ATOM      1  C   UNL     1      36.598  18.461 122.564 -0.18 -0.00    +0.000 C 
DOCKED: ENDROOT
DOCKED: BRANCH   1   2
DOCKED: ATOM      2  C   UNL     1      36.672  17.925 121.163 -0.14 -0.00    +0.000 A 
DOCKED: ATOM      3  C   UNL     1      35.503  17.707 120.419 -0.20 -0.00    +0.000 A 
DOCKED: ATOM      4  C   UNL     1      35.576  17.191 119.121 -0.13 -0.00    +0.000 A 
DOCKED: ATOM      5  C   UNL     1      36.820  16.874 118.556 -0.11 -0.00    +0.000 A 
DOCKED: ATOM      6  C   UNL     1      36.902  16.348 117.258 -0.11 -0.00    +0.000 A 
DOCKED: ATOM      7  C   UNL     1      38.146  15.999 116.708 -0.12 -0.00    +0.000 A 
DOCKED: ATOM      8  C   UNL     1      39.315  16.221 117.453 -0.12 -0.00    +0.000 A 
DOCKED: ATOM      9  C   UNL     1      39.244  16.753 118.745 -0.09 -0.00    +0.000 A 
DOCKED: ATOM     10  C   UNL     1      38.001  17.078 119.307 -0.08 -0.00    +0.000 A 
DOCKED: ATOM     11  C   UNL     1      37.920  17.604 120.605 -0.07 -0.00    +0.000 A 
DOCKED: ATOM     12  CM  UNL     1      36.748  17.397 119.861 +0.00 -0.00    +0.000 AC
DOCKED: ATOM     13  CM  UNL     1      38.072  16.545 118.004 +0.00 -0.00    +0.000 AC
DOCKED: BRANCH   7  12
DOCKED: ATOM     14  C   UNL     1      38.227  15.444 115.309 -0.20 -0.00    +0.000 C 
DOCKED: BRANCH  12  13
DOCKED: ATOM     15  N   UNL     1      37.320  14.288 115.144 -0.27 -0.00    +0.000 N 
DOCKED: ATOM     16  H   UNL     1      36.967  14.155 116.093 -0.01 -0.00    +0.000 HD
DOCKED: BRANCH  13  15
DOCKED: ATOM     17  C   UNL     1      36.114  14.570 114.336 -0.23 -0.00    +0.000 C 
DOCKED: ATOM     18  C   UNL     1      34.810  14.119 114.997 -0.28 -0.00    +0.000 C 
DOCKED: ENDBRANCH  13  15
DOCKED: BRANCH  13  17
DOCKED: ATOM     19  C   UNL     1      37.954  12.968 114.891 -0.47 -0.00    +0.000 C 
DOCKED: ATOM     20  C   UNL     1      39.310  12.762 115.580 -0.52 -0.00    +0.000 C 
DOCKED: ENDBRANCH  13  17
DOCKED: ENDBRANCH  12  13
DOCKED: ENDBRANCH   7  12
DOCKED: ENDBRANCH   1   2
DOCKED: BRANCH   1  19
DOCKED: ATOM     21  O   UNL     1      37.189  17.522 123.456 -0.23 -0.00    +0.000 OA
DOCKED: BRANCH  19  21
DOCKED: ATOM     22  O   UNL     1      38.555  15.840 122.665 -0.31 -0.00    +0.000 OA
DOCKED: ATOM     23  C   UNL     1      37.425  16.190 123.106 -0.31 -0.00    +0.000 C 
DOCKED: ATOM     24  N   UNL     1      36.355  15.242 123.212 -0.40 -0.00    +0.000 N 
DOCKED: ATOM     25  H   UNL     1      35.461  15.582 123.447 -0.02 -0.00    +0.000 HD
DOCKED: BRANCH  22  24
DOCKED: ATOM     26  C   UNL     1      36.500  13.828 122.999 -0.46 -0.00    +0.000 A 
DOCKED: ATOM     27  C   UNL     1      37.226  13.369 121.891 -0.42 -0.00    +0.000 A 
DOCKED: ATOM     28  C   UNL     1      37.361  12.001 121.645 -0.42 -0.00    +0.000 A 
DOCKED: ATOM     29  C   UNL     1      36.751  11.059 122.495 -0.57 -0.00    +0.000 A 
DOCKED: ATOM     30  C   UNL     1      36.017  11.521 123.602 -0.60 -0.00    +0.000 A 
DOCKED: ATOM     31  C   UNL     1      35.884  12.891 123.846 -0.48 -0.00    +0.000 A 
DOCKED: ATOM     32  CM  UNL     1      36.623  12.445 122.747 +0.00 -0.00    +0.000 AC
DOCKED: BRANCH  27  30
DOCKED: ATOM     33  C   UNL     1      36.880   9.601 122.249 -0.65 -0.00    +0.000 C 
DOCKED: ATOM     34  N   UNL     1      37.054   8.674 123.327 -0.67 -0.00    +0.000 N 
DOCKED: ATOM     35  O   UNL     1      37.066   7.344 123.085 -2.33 -0.00    +0.000 OA
DOCKED: ATOM     36  O   UNL     1      36.850   9.165 121.066 -2.66 -0.00    +0.000 OA
DOCKED: ATOM     37  H   UNL     1      37.166   9.007 124.246 -0.57 -0.00    +0.000 HD
DOCKED: ENDBRANCH  27  30
DOCKED: ENDBRANCH  22  24
DOCKED: ENDBRANCH  19  21
DOCKED: ENDBRANCH   1  19
DOCKED: TORSDOF 9DOCKED: TER
DOCKED: ENDMDL
________________________________________________________________________________


	BEGINNING GENETIC ALGORITHM DOCKING 60 of 100
Run: 60 Seed: 1034198706 597907734 [ Run 60 of 100 GA/GALS ]
Beginning LAMARCKIAN GENETIC ALGORITHM (LGA), with a maximum of 2500000 energy evaluations.

Final-Value: -16.235


	FINAL GENETIC ALGORITHM DOCKED STATE
	_______________________________________________


Detailed state:  trans 37.200 16.221 122.667 quatxyzw 0.080487 0.619031 -0.752802 0.208833 center 1.619 0.086 0.013 ntor 9 -160.6892 101.3314 153.5689 -80.0355 -57.5134 160.2207 -54.5656 169.1675 -179.6869
State:	 37.200  16.221 122.667   0.082  0.633 -0.770 155.892   -160.69  101.33  153.57  -80.04  -57.51  160.22  -54.57  169.17 -179.69

DOCKED: MODEL       60
DOCKED: USER    Run = 60
DOCKED: USER    DPF = ligand_dock.biased.dpf
DOCKED: USER  
DOCKED: USER    Estimated Free Energy of Binding    =  -11.71 kcal/mol  [=(1)+(2)+(3)-(4)]
DOCKED: USER    Estimated Inhibition Constant, Ki   =    2.61 nM (nanomolar)  [Temperature = 298.15 K]
DOCKED: USER    
DOCKED: USER    (1) Final Intermolecular Energy     =  -14.40 kcal/mol
DOCKED: USER        vdW + Hbond + desolv Energy     =  -14.40 kcal/mol
DOCKED: USER        Electrostatic Energy            =   +0.00 kcal/mol
DOCKED: USER    (2) Final Total Internal Energy     =   -1.84 kcal/mol
DOCKED: USER    (3) Torsional Free Energy           =   +2.68 kcal/mol
DOCKED: USER    (4) Unbound System's Energy  [=(2)] =   -1.84 kcal/mol
DOCKED: USER    
DOCKED: USER    
DOCKED: USER    NEWDPF move ligand.dum.pdbqt
DOCKED: USER    NEWDPF about 1.619000 0.086000 0.013000
DOCKED: USER    NEWDPF tran0 37.199917 16.221251 122.666617
DOCKED: USER    NEWDPF quaternion0 0.080487 0.619031 -0.752802 0.208833
DOCKED: USER    NEWDPF axisangle0 0.082301 0.632988 -0.769775 155.892086
DOCKED: USER    NEWDPF quat0 0.082301 0.632988 -0.769775 155.892086
DOCKED: USER    NEWDPF dihe0 -160.69 101.33 153.57 -80.04 -57.51 160.22 -54.57 169.17 -179.69 
DOCKED: USER  keepresnum = 1 
DOCKED: USER  
DOCKED: REMARK  Name = 
DOCKED: REMARK  11 active torsions:
DOCKED: REMARK  status: ('A' for Active; 'I' for Inactive)
DOCKED: REMARK    1  A    between atoms: C_2  and  O_3
DOCKED: REMARK    2  A    between atoms: O_3  and  C_4
DOCKED: REMARK    3  A    between atoms: C_4  and  C_5
DOCKED: REMARK    4  A    between atoms: C_10  and  C_11
DOCKED: REMARK    5  A    between atoms: C_11  and  N_12
DOCKED: REMARK    6  A    between atoms: N_12  and  C_13
DOCKED: REMARK    7  A    between atoms: N_12  and  C_15
DOCKED: REMARK    8  A    between atoms: C_13  and  C_14
DOCKED: REMARK    9  A    between atoms: C_15  and  C_16
DOCKED: REMARK   10  A    between atoms: N_21  and  C_22
DOCKED: REMARK   11  A    between atoms: C_25  and  C_26
DOCKED: REMARK                            x       y       z     vdW  Elec       q    Type
DOCKED: REMARK                         _______ _______ _______ _____ _____    ______ ____
DOCKED: USER                              x       y       z     vdW  Elec       q    Type
DOCKED: USER                           _______ _______ _______ _____ _____    ______ ____
DOCKED: ROOT
DOCKED: ATOM      1  C   UNL     1      37.839  18.525 122.513 -0.11 -0.00    +0.000 C 
DOCKED: ENDROOT
DOCKED: BRANCH   1   2
DOCKED: ATOM      2  C   UNL     1      39.089  17.730 122.267 -0.11 -0.00    +0.000 A 
DOCKED: ATOM      3  C   UNL     1      39.657  16.958 123.291 -0.22 -0.00    +0.000 A 
DOCKED: ATOM      4  C   UNL     1      40.832  16.234 123.063 -0.31 -0.00    +0.000 A 
DOCKED: ATOM      5  C   UNL     1      41.460  16.285 121.811 -0.28 -0.00    +0.000 A 
DOCKED: ATOM      6  C   UNL     1      42.644  15.569 121.575 -0.31 -0.00    +0.000 A 
DOCKED: ATOM      7  C   UNL     1      43.290  15.650 120.331 -0.19 -0.00    +0.000 A 
DOCKED: ATOM      8  C   UNL     1      42.717  16.421 119.306 -0.16 -0.00    +0.000 A 
DOCKED: ATOM      9  C   UNL     1      41.534  17.131 119.529 -0.10 -0.00    +0.000 A 
DOCKED: ATOM     10  C   UNL     1      40.900  17.073 120.778 -0.12 -0.00    +0.000 A 
DOCKED: ATOM     11  C   UNL     1      39.717  17.790 121.013 -0.06 -0.00    +0.000 A 
DOCKED: ATOM     12  CM  UNL     1      40.276  17.011 122.038 +0.00 -0.00    +0.000 AC
DOCKED: ATOM     13  CM  UNL     1      42.091  16.355 120.555 +0.00 -0.00    +0.000 AC
DOCKED: BRANCH   7  12
DOCKED: ATOM     14  C   UNL     1      44.555  14.869 120.082 -0.28 +0.00    +0.000 C 
DOCKED: BRANCH  12  13
DOCKED: ATOM     15  N   UNL     1      45.729  15.767 120.021 -0.27 +0.00    +0.000 N 
DOCKED: ATOM     16  H   UNL     1      45.338  16.601 119.581 +0.00 -0.00    +0.000 HD
DOCKED: BRANCH  13  15
DOCKED: ATOM     17  C   UNL     1      46.208  16.233 121.340 -0.28 +0.00    +0.000 C 
DOCKED: ATOM     18  C   UNL     1      45.528  17.517 121.823 -0.24 -0.00    +0.000 C 
DOCKED: ENDBRANCH  13  15
DOCKED: BRANCH  13  17
DOCKED: ATOM     19  C   UNL     1      46.797  15.410 119.053 -0.32 +0.00    +0.000 C 
DOCKED: ATOM     20  C   UNL     1      46.345  15.351 117.587 -0.27 -0.00    +0.000 C 
DOCKED: ENDBRANCH  13  17
DOCKED: ENDBRANCH  12  13
DOCKED: ENDBRANCH   7  12
DOCKED: ENDBRANCH   1   2
DOCKED: BRANCH   1  19
DOCKED: ATOM     21  O   UNL     1      36.732  17.636 122.624 -0.19 -0.00    +0.000 OA
DOCKED: BRANCH  19  21
DOCKED: ATOM     22  O   UNL     1      37.206  15.965 121.107 -0.22 -0.00    +0.000 OA
DOCKED: ATOM     23  C   UNL     1      36.803  16.289 122.258 -0.27 -0.00    +0.000 C 
DOCKED: ATOM     24  N   UNL     1      36.369  15.290 123.191 -0.39 -0.00    +0.000 N 
DOCKED: ATOM     25  H   UNL     1      35.952  15.595 124.030 -0.03 -0.00    +0.000 HD
DOCKED: BRANCH  22  24
DOCKED: ATOM     26  C   UNL     1      36.502  13.874 122.984 -0.46 -0.00    +0.000 A 
DOCKED: ATOM     27  C   UNL     1      37.360  13.404 121.980 -0.43 -0.00    +0.000 A 
DOCKED: ATOM     28  C   UNL     1      37.490  12.034 121.739 -0.33 -0.00    +0.000 A 
DOCKED: ATOM     29  C   UNL     1      36.742  11.104 122.486 -0.57 -0.00    +0.000 A 
DOCKED: ATOM     30  C   UNL     1      35.877  11.579 123.488 -0.59 -0.00    +0.000 A 
DOCKED: ATOM     31  C   UNL     1      35.750  12.950 123.727 -0.43 -0.00    +0.000 A 
DOCKED: ATOM     32  CM  UNL     1      36.620  12.490 122.734 +0.00 -0.00    +0.000 AC
DOCKED: BRANCH  27  30
DOCKED: ATOM     33  C   UNL     1      36.863   9.644 122.243 -0.65 -0.00    +0.000 C 
DOCKED: ATOM     34  N   UNL     1      37.061   8.722 123.320 -0.66 -0.00    +0.000 N 
DOCKED: ATOM     35  O   UNL     1      37.065   7.390 123.083 -2.35 -0.00    +0.000 OA
DOCKED: ATOM     36  O   UNL     1      36.805   9.204 121.062 -2.65 -0.00    +0.000 OA
DOCKED: ATOM     37  H   UNL     1      37.196   9.058 124.235 -0.58 -0.00    +0.000 HD
DOCKED: ENDBRANCH  27  30
DOCKED: ENDBRANCH  22  24
DOCKED: ENDBRANCH  19  21
DOCKED: ENDBRANCH   1  19
DOCKED: TORSDOF 9DOCKED: TER
DOCKED: ENDMDL
________________________________________________________________________________


	BEGINNING GENETIC ALGORITHM DOCKING 61 of 100
Run: 61 Seed: 292656833 1555656212 [ Run 61 of 100 GA/GALS ]
Beginning LAMARCKIAN GENETIC ALGORITHM (LGA), with a maximum of 2500000 energy evaluations.

Final-Value: -17.940


	FINAL GENETIC ALGORITHM DOCKED STATE
	_______________________________________________


Detailed state:  trans 36.834 16.518 123.415 quatxyzw 0.490181 0.469080 -0.174060 -0.713716 center 1.619 0.086 0.013 ntor 9 111.9171 -44.6908 164.1763 153.4053 -46.7129 180.0000 80.2011 -111.0166 -178.5803
State:	 36.834  16.518 123.415   0.700  0.670 -0.249 -88.924    111.92  -44.69  164.18  153.41  -46.71  180.00   80.20 -111.02 -178.58

DOCKED: MODEL       61
DOCKED: USER    Run = 61
DOCKED: USER    DPF = ligand_dock.biased.dpf
DOCKED: USER  
DOCKED: USER    Estimated Free Energy of Binding    =  -13.55 kcal/mol  [=(1)+(2)+(3)-(4)]
DOCKED: USER    Estimated Inhibition Constant, Ki   =  116.23 pM (picomolar)  [Temperature = 298.15 K]
DOCKED: USER    
DOCKED: USER    (1) Final Intermolecular Energy     =  -16.24 kcal/mol
DOCKED: USER        vdW + Hbond + desolv Energy     =  -16.24 kcal/mol
DOCKED: USER        Electrostatic Energy            =   +0.00 kcal/mol
DOCKED: USER    (2) Final Total Internal Energy     =   -1.70 kcal/mol
DOCKED: USER    (3) Torsional Free Energy           =   +2.68 kcal/mol
DOCKED: USER    (4) Unbound System's Energy  [=(2)] =   -1.70 kcal/mol
DOCKED: USER    
DOCKED: USER    
DOCKED: USER    NEWDPF move ligand.dum.pdbqt
DOCKED: USER    NEWDPF about 1.619000 0.086000 0.013000
DOCKED: USER    NEWDPF tran0 36.834162 16.517575 123.415463
DOCKED: USER    NEWDPF quaternion0 0.490181 0.469080 -0.174060 -0.713716
DOCKED: USER    NEWDPF axisangle0 0.699823 0.669697 -0.248503 -88.923869
DOCKED: USER    NEWDPF quat0 0.699823 0.669697 -0.248503 -88.923869
DOCKED: USER    NEWDPF dihe0 111.92 -44.69 164.18 153.41 -46.71 180.00 80.20 -111.02 -178.58 
DOCKED: USER  keepresnum = 1 
DOCKED: USER  
DOCKED: REMARK  Name = 
DOCKED: REMARK  11 active torsions:
DOCKED: REMARK  status: ('A' for Active; 'I' for Inactive)
DOCKED: REMARK    1  A    between atoms: C_2  and  O_3
DOCKED: REMARK    2  A    between atoms: O_3  and  C_4
DOCKED: REMARK    3  A    between atoms: C_4  and  C_5
DOCKED: REMARK    4  A    between atoms: C_10  and  C_11
DOCKED: REMARK    5  A    between atoms: C_11  and  N_12
DOCKED: REMARK    6  A    between atoms: N_12  and  C_13
DOCKED: REMARK    7  A    between atoms: N_12  and  C_15
DOCKED: REMARK    8  A    between atoms: C_13  and  C_14
DOCKED: REMARK    9  A    between atoms: C_15  and  C_16
DOCKED: REMARK   10  A    between atoms: N_21  and  C_22
DOCKED: REMARK   11  A    between atoms: C_25  and  C_26
DOCKED: REMARK                            x       y       z     vdW  Elec       q    Type
DOCKED: REMARK                         _______ _______ _______ _____ _____    ______ ____
DOCKED: USER                              x       y       z     vdW  Elec       q    Type
DOCKED: USER                           _______ _______ _______ _____ _____    ______ ____
DOCKED: ROOT
DOCKED: ATOM      1  C   UNL     1      35.612  18.468 122.754 -0.26 -0.00    +0.000 C 
DOCKED: ENDROOT
DOCKED: BRANCH   1   2
DOCKED: ATOM      2  C   UNL     1      35.021  18.033 124.064 -0.30 -0.00    +0.000 A 
DOCKED: ATOM      3  C   UNL     1      34.340  16.811 124.170 -0.43 -0.00    +0.000 A 
DOCKED: ATOM      4  C   UNL     1      33.777  16.418 125.388 -0.27 -0.00    +0.000 A 
DOCKED: ATOM      5  C   UNL     1      33.875  17.251 126.513 -0.34 -0.00    +0.000 A 
DOCKED: ATOM      6  C   UNL     1      33.304  16.869 127.736 -0.38 -0.00    +0.000 A 
DOCKED: ATOM      7  C   UNL     1      33.374  17.721 128.851 -0.21 -0.00    +0.000 A 
DOCKED: ATOM      8  C   UNL     1      34.058  18.942 128.743 -0.10 -0.00    +0.000 A 
DOCKED: ATOM      9  C   UNL     1      34.637  19.327 127.530 -0.12 -0.00    +0.000 A 
DOCKED: ATOM     10  C   UNL     1      34.547  18.491 126.408 -0.24 -0.00    +0.000 A 
DOCKED: ATOM     11  C   UNL     1      35.117  18.874 125.184 -0.23 -0.00    +0.000 A 
DOCKED: ATOM     12  CM  UNL     1      34.446  17.646 125.288 -0.40 -0.00    +0.000 AC
DOCKED: ATOM     13  CM  UNL     1      33.966  18.100 127.630 +0.00 -0.00    +0.000 AC
DOCKED: BRANCH   7  12
DOCKED: ATOM     14  C   UNL     1      32.768  17.298 130.165 -0.27 -0.00    +0.000 C 
DOCKED: BRANCH  12  13
DOCKED: ATOM     15  N   UNL     1      31.421  17.883 130.340 -0.27 -0.00    +0.000 N 
DOCKED: ATOM     16  H   UNL     1      31.277  17.795 131.347 -0.32 -0.00    +0.000 HD
DOCKED: BRANCH  13  15
DOCKED: ATOM     17  C   UNL     1      31.350  19.338 130.082 -0.17 -0.00    +0.000 C 
DOCKED: ATOM     18  C   UNL     1      29.975  19.947 130.363 -0.27 -0.00    +0.000 C 
DOCKED: ENDBRANCH  13  15
DOCKED: BRANCH  13  17
DOCKED: ATOM     19  C   UNL     1      30.274  17.094 129.820 -0.31 -0.00    +0.000 C 
DOCKED: ATOM     20  C   UNL     1      29.952  17.325 128.338 -0.47 -0.00    +0.000 C 
DOCKED: ENDBRANCH  13  17
DOCKED: ENDBRANCH  12  13
DOCKED: ENDBRANCH   7  12
DOCKED: ENDBRANCH   1   2
DOCKED: BRANCH   1  19
DOCKED: ATOM     21  O   UNL     1      36.737  17.651 122.451 -0.18 -0.00    +0.000 OA
DOCKED: BRANCH  19  21
DOCKED: ATOM     22  O   UNL     1      36.298  15.910 121.003 -0.23 -0.00    +0.000 OA
DOCKED: ATOM     23  C   UNL     1      36.627  16.288 122.161 -0.27 -0.00    +0.000 C 
DOCKED: ATOM     24  N   UNL     1      36.845  15.333 123.209 -0.37 -0.00    +0.000 N 
DOCKED: ATOM     25  H   UNL     1      36.982  15.675 124.122 -0.03 -0.00    +0.000 HD
DOCKED: BRANCH  22  24
DOCKED: ATOM     26  C   UNL     1      36.880  13.909 123.014 -0.47 -0.00    +0.000 A 
DOCKED: ATOM     27  C   UNL     1      37.417  13.390 121.827 -0.43 -0.00    +0.000 A 
DOCKED: ATOM     28  C   UNL     1      37.440  12.012 121.600 -0.41 -0.00    +0.000 A 
DOCKED: ATOM     29  C   UNL     1      36.903  11.123 122.550 -0.54 -0.00    +0.000 A 
DOCKED: ATOM     30  C   UNL     1      36.358  11.646 123.736 -0.62 -0.00    +0.000 A 
DOCKED: ATOM     31  C   UNL     1      36.337  13.026 123.961 -0.44 -0.00    +0.000 A 
DOCKED: ATOM     32  CM  UNL     1      36.889  12.517 122.782 +0.00 -0.00    +0.000 AC
DOCKED: BRANCH  27  30
DOCKED: ATOM     33  C   UNL     1      36.915   9.655 122.326 -0.64 -0.00    +0.000 C 
DOCKED: ATOM     34  N   UNL     1      37.160   8.738 123.397 -0.62 -0.00    +0.000 N 
DOCKED: ATOM     35  O   UNL     1      37.063   7.405 123.187 -2.39 -0.00    +0.000 OA
DOCKED: ATOM     36  O   UNL     1      36.718   9.202 121.165 -2.63 -0.00    +0.000 OA
DOCKED: ATOM     37  H   UNL     1      37.400   9.079 124.289 -0.62 -0.00    +0.000 HD
DOCKED: ENDBRANCH  27  30
DOCKED: ENDBRANCH  22  24
DOCKED: ENDBRANCH  19  21
DOCKED: ENDBRANCH   1  19
DOCKED: TORSDOF 9DOCKED: TER
DOCKED: ENDMDL
________________________________________________________________________________


	BEGINNING GENETIC ALGORITHM DOCKING 62 of 100
Run: 62 Seed: 129393329 751844369 [ Run 62 of 100 GA/GALS ]
Beginning LAMARCKIAN GENETIC ALGORITHM (LGA), with a maximum of 2500000 energy evaluations.

Final-Value: -16.076


	FINAL GENETIC ALGORITHM DOCKED STATE
	_______________________________________________


Detailed state:  trans 36.691 16.370 119.973 quatxyzw 0.781726 0.304467 -0.310367 -0.447075 center 1.619 0.086 0.013 ntor 9 63.4038 106.0198 -179.8317 -125.1431 -65.6909 -167.9146 106.8622 175.1780 -161.6612
State:	 36.691  16.370 119.973   0.874  0.340 -0.347 -126.888     63.40  106.02 -179.83 -125.14  -65.69 -167.91  106.86  175.18 -161.66

DOCKED: MODEL       62
DOCKED: USER    Run = 62
DOCKED: USER    DPF = ligand_dock.biased.dpf
DOCKED: USER  
DOCKED: USER    Estimated Free Energy of Binding    =  -11.75 kcal/mol  [=(1)+(2)+(3)-(4)]
DOCKED: USER    Estimated Inhibition Constant, Ki   =    2.44 nM (nanomolar)  [Temperature = 298.15 K]
DOCKED: USER    
DOCKED: USER    (1) Final Intermolecular Energy     =  -14.43 kcal/mol
DOCKED: USER        vdW + Hbond + desolv Energy     =  -14.43 kcal/mol
DOCKED: USER        Electrostatic Energy            =   +0.00 kcal/mol
DOCKED: USER    (2) Final Total Internal Energy     =   -1.64 kcal/mol
DOCKED: USER    (3) Torsional Free Energy           =   +2.68 kcal/mol
DOCKED: USER    (4) Unbound System's Energy  [=(2)] =   -1.64 kcal/mol
DOCKED: USER    
DOCKED: USER    
DOCKED: USER    NEWDPF move ligand.dum.pdbqt
DOCKED: USER    NEWDPF about 1.619000 0.086000 0.013000
DOCKED: USER    NEWDPF tran0 36.691370 16.370152 119.972693
DOCKED: USER    NEWDPF quaternion0 0.781726 0.304467 -0.310367 -0.447075
DOCKED: USER    NEWDPF axisangle0 0.873929 0.340378 -0.346974 -126.887634
DOCKED: USER    NEWDPF quat0 0.873929 0.340378 -0.346974 -126.887634
DOCKED: USER    NEWDPF dihe0 63.40 106.02 -179.83 -125.14 -65.69 -167.91 106.86 175.18 -161.66 
DOCKED: USER  keepresnum = 1 
DOCKED: USER  
DOCKED: REMARK  Name = 
DOCKED: REMARK  11 active torsions:
DOCKED: REMARK  status: ('A' for Active; 'I' for Inactive)
DOCKED: REMARK    1  A    between atoms: C_2  and  O_3
DOCKED: REMARK    2  A    between atoms: O_3  and  C_4
DOCKED: REMARK    3  A    between atoms: C_4  and  C_5
DOCKED: REMARK    4  A    between atoms: C_10  and  C_11
DOCKED: REMARK    5  A    between atoms: C_11  and  N_12
DOCKED: REMARK    6  A    between atoms: N_12  and  C_13
DOCKED: REMARK    7  A    between atoms: N_12  and  C_15
DOCKED: REMARK    8  A    between atoms: C_13  and  C_14
DOCKED: REMARK    9  A    between atoms: C_15  and  C_16
DOCKED: REMARK   10  A    between atoms: N_21  and  C_22
DOCKED: REMARK   11  A    between atoms: C_25  and  C_26
DOCKED: REMARK                            x       y       z     vdW  Elec       q    Type
DOCKED: REMARK                         _______ _______ _______ _____ _____    ______ ____
DOCKED: USER                              x       y       z     vdW  Elec       q    Type
DOCKED: USER                           _______ _______ _______ _____ _____    ______ ____
DOCKED: ROOT
DOCKED: ATOM      1  C   UNL     1      37.168  18.660 120.491 -0.10 -0.00    +0.000 C 
DOCKED: ENDROOT
DOCKED: BRANCH   1   2
DOCKED: ATOM      2  C   UNL     1      36.267  18.165 121.587 -0.17 -0.00    +0.000 A 
DOCKED: ATOM      3  C   UNL     1      35.087  17.471 121.282 -0.25 -0.00    +0.000 A 
DOCKED: ATOM      4  C   UNL     1      34.242  17.028 122.304 -0.28 -0.00    +0.000 A 
DOCKED: ATOM      5  C   UNL     1      34.561  17.286 123.645 -0.38 -0.00    +0.000 A 
DOCKED: ATOM      6  C   UNL     1      33.714  16.853 124.677 -0.11 -0.00    +0.000 A 
DOCKED: ATOM      7  C   UNL     1      34.020  17.144 126.017 -0.37 -0.00    +0.000 A 
DOCKED: ATOM      8  C   UNL     1      35.203  17.835 126.320 -0.05 -0.00    +0.000 A 
DOCKED: ATOM      9  C   UNL     1      36.057  18.263 125.299 -0.20 -0.00    +0.000 A 
DOCKED: ATOM     10  C   UNL     1      35.743  17.998 123.958 -0.25 -0.00    +0.000 A 
DOCKED: ATOM     11  C   UNL     1      36.589  18.432 122.927 -0.16 -0.00    +0.000 A 
DOCKED: ATOM     12  CM  UNL     1      35.415  17.729 122.617 -0.00 -0.00    +0.000 AC
DOCKED: ATOM     13  CM  UNL     1      34.883  17.563 124.986 -0.47 -0.00    +0.000 AC
DOCKED: BRANCH   7  12
DOCKED: ATOM     14  C   UNL     1      33.111  16.665 127.121 -0.42 -0.00    +0.000 C 
DOCKED: BRANCH  12  13
DOCKED: ATOM     15  N   UNL     1      32.517  17.807 127.850 -0.29 -0.00    +0.000 N 
DOCKED: ATOM     16  H   UNL     1      33.275  18.080 128.476 +0.00 -0.00    +0.000 HD
DOCKED: BRANCH  13  15
DOCKED: ATOM     17  C   UNL     1      32.277  19.004 127.016 -0.25 -0.00    +0.000 C 
DOCKED: ATOM     18  C   UNL     1      30.911  19.654 127.250 -0.32 -0.00    +0.000 C 
DOCKED: ENDBRANCH  13  15
DOCKED: BRANCH  13  17
DOCKED: ATOM     19  C   UNL     1      31.442  17.493 128.827 -0.40 -0.00    +0.000 C 
DOCKED: ATOM     20  C   UNL     1      31.888  16.643 130.025 -0.38 -0.00    +0.000 C 
DOCKED: ENDBRANCH  13  17
DOCKED: ENDBRANCH  12  13
DOCKED: ENDBRANCH   7  12
DOCKED: ENDBRANCH   1   2
DOCKED: BRANCH   1  19
DOCKED: ATOM     21  O   UNL     1      37.499  17.576 119.630 -0.08 -0.00    +0.000 OA
DOCKED: BRANCH  19  21
DOCKED: ATOM     22  O   UNL     1      36.233  15.688 119.236 -0.21 -0.00    +0.000 OA
DOCKED: ATOM     23  C   UNL     1      37.141  16.253 119.906 -0.17 -0.00    +0.000 C 
DOCKED: ATOM     24  N   UNL     1      37.786  15.568 120.989 -0.20 -0.00    +0.000 N 
DOCKED: ATOM     25  H   UNL     1      38.401  16.085 121.559 +0.01 -0.00    +0.000 HD
DOCKED: BRANCH  22  24
DOCKED: ATOM     26  C   UNL     1      37.596  14.177 121.297 -0.34 -0.00    +0.000 A 
DOCKED: ATOM     27  C   UNL     1      37.656  13.230 120.265 -0.41 -0.00    +0.000 A 
DOCKED: ATOM     28  C   UNL     1      37.449  11.874 120.532 -0.46 -0.00    +0.000 A 
DOCKED: ATOM     29  C   UNL     1      37.154  11.440 121.838 -0.42 -0.00    +0.000 A 
DOCKED: ATOM     30  C   UNL     1      37.088  12.394 122.870 -0.55 -0.00    +0.000 A 
DOCKED: ATOM     31  C   UNL     1      37.296  13.749 122.601 -0.45 -0.00    +0.000 A 
DOCKED: ATOM     32  CM  UNL     1      37.373  12.811 121.568 +0.00 -0.00    +0.000 AC
DOCKED: BRANCH  27  30
DOCKED: ATOM     33  C   UNL     1      36.928  10.004 122.141 -0.60 -0.00    +0.000 C 
DOCKED: ATOM     34  N   UNL     1      37.092   9.486 123.466 -0.50 -0.00    +0.000 N 
DOCKED: ATOM     35  O   UNL     1      36.781   8.198 123.735 -2.11 -0.00    +0.000 OA
DOCKED: ATOM     36  O   UNL     1      36.598   9.218 121.212 -2.51 -0.00    +0.000 OA
DOCKED: ATOM     37  H   UNL     1      37.433  10.069 124.182 -0.56 -0.00    +0.000 HD
DOCKED: ENDBRANCH  27  30
DOCKED: ENDBRANCH  22  24
DOCKED: ENDBRANCH  19  21
DOCKED: ENDBRANCH   1  19
DOCKED: TORSDOF 9DOCKED: TER
DOCKED: ENDMDL
________________________________________________________________________________


	BEGINNING GENETIC ALGORITHM DOCKING 63 of 100
Run: 63 Seed: 1984515864 132339526 [ Run 63 of 100 GA/GALS ]
Beginning LAMARCKIAN GENETIC ALGORITHM (LGA), with a maximum of 2500000 energy evaluations.

Final-Value: -16.757


	FINAL GENETIC ALGORITHM DOCKED STATE
	_______________________________________________


Detailed state:  trans 37.936 17.532 121.243 quatxyzw 0.907317 -0.152692 0.391485 -0.014118 center 1.619 0.086 0.013 ntor 9 -113.9084 -130.1405 -179.8915 122.0614 -85.6316 79.5159 173.0792 97.5294 -158.8653
State:	 37.936  17.532 121.243   0.907 -0.153  0.392 -178.382   -113.91 -130.14 -179.89  122.06  -85.63   79.52  173.08   97.53 -158.87

DOCKED: MODEL       63
DOCKED: USER    Run = 63
DOCKED: USER    DPF = ligand_dock.biased.dpf
DOCKED: USER  
DOCKED: USER    Estimated Free Energy of Binding    =  -12.43 kcal/mol  [=(1)+(2)+(3)-(4)]
DOCKED: USER    Estimated Inhibition Constant, Ki   =  773.21 pM (picomolar)  [Temperature = 298.15 K]
DOCKED: USER    
DOCKED: USER    (1) Final Intermolecular Energy     =  -15.12 kcal/mol
DOCKED: USER        vdW + Hbond + desolv Energy     =  -15.12 kcal/mol
DOCKED: USER        Electrostatic Energy            =   +0.00 kcal/mol
DOCKED: USER    (2) Final Total Internal Energy     =   -1.64 kcal/mol
DOCKED: USER    (3) Torsional Free Energy           =   +2.68 kcal/mol
DOCKED: USER    (4) Unbound System's Energy  [=(2)] =   -1.64 kcal/mol
DOCKED: USER    
DOCKED: USER    
DOCKED: USER    NEWDPF move ligand.dum.pdbqt
DOCKED: USER    NEWDPF about 1.619000 0.086000 0.013000
DOCKED: USER    NEWDPF tran0 37.936327 17.532009 121.243252
DOCKED: USER    NEWDPF quaternion0 0.907317 -0.152692 0.391485 -0.014118
DOCKED: USER    NEWDPF axisangle0 0.907408 -0.152708 0.391524 -178.382159
DOCKED: USER    NEWDPF quat0 0.907408 -0.152708 0.391524 -178.382159
DOCKED: USER    NEWDPF dihe0 -113.91 -130.14 -179.89 122.06 -85.63 79.52 173.08 97.53 -158.87 
DOCKED: USER  keepresnum = 1 
DOCKED: USER  
DOCKED: REMARK  Name = 
DOCKED: REMARK  11 active torsions:
DOCKED: REMARK  status: ('A' for Active; 'I' for Inactive)
DOCKED: REMARK    1  A    between atoms: C_2  and  O_3
DOCKED: REMARK    2  A    between atoms: O_3  and  C_4
DOCKED: REMARK    3  A    between atoms: C_4  and  C_5
DOCKED: REMARK    4  A    between atoms: C_10  and  C_11
DOCKED: REMARK    5  A    between atoms: C_11  and  N_12
DOCKED: REMARK    6  A    between atoms: N_12  and  C_13
DOCKED: REMARK    7  A    between atoms: N_12  and  C_15
DOCKED: REMARK    8  A    between atoms: C_13  and  C_14
DOCKED: REMARK    9  A    between atoms: C_15  and  C_16
DOCKED: REMARK   10  A    between atoms: N_21  and  C_22
DOCKED: REMARK   11  A    between atoms: C_25  and  C_26
DOCKED: REMARK                            x       y       z     vdW  Elec       q    Type
DOCKED: REMARK                         _______ _______ _______ _____ _____    ______ ____
DOCKED: USER                              x       y       z     vdW  Elec       q    Type
DOCKED: USER                           _______ _______ _______ _____ _____    ______ ____
DOCKED: ROOT
DOCKED: ATOM      1  C   UNL     1      36.605  18.088 123.156 -0.21 -0.00    +0.000 C 
DOCKED: ENDROOT
DOCKED: BRANCH   1   2
DOCKED: ATOM      2  C   UNL     1      35.749  18.376 121.956 -0.22 -0.00    +0.000 A 
DOCKED: ATOM      3  C   UNL     1      36.271  19.074 120.857 -0.15 -0.00    +0.000 A 
DOCKED: ATOM      4  C   UNL     1      35.464  19.356 119.750 -0.16 -0.00    +0.000 A 
DOCKED: ATOM      5  C   UNL     1      34.121  18.954 119.734 -0.25 -0.00    +0.000 A 
DOCKED: ATOM      6  C   UNL     1      33.302  19.241 118.631 -0.22 -0.00    +0.000 A 
DOCKED: ATOM      7  C   UNL     1      31.948  18.868 118.634 -0.28 -0.00    +0.000 A 
DOCKED: ATOM      8  C   UNL     1      31.428  18.166 119.734 -0.42 -0.00    +0.000 A 
DOCKED: ATOM      9  C   UNL     1      32.239  17.870 120.834 -0.07 -0.00    +0.000 A 
DOCKED: ATOM     10  C   UNL     1      33.585  18.263 120.846 -0.30 -0.00    +0.000 A 
DOCKED: ATOM     11  C   UNL     1      34.403  17.977 121.949 -0.31 -0.00    +0.000 A 
DOCKED: ATOM     12  CM  UNL     1      34.933  18.667 120.848 +0.00 -0.00    +0.000 AC
DOCKED: ATOM     13  CM  UNL     1      32.770  18.560 119.736 +0.00 -0.00    +0.000 AC
DOCKED: BRANCH   7  12
DOCKED: ATOM     14  C   UNL     1      31.077  19.169 117.441 -0.17 -0.00    +0.000 C 
DOCKED: BRANCH  12  13
DOCKED: ATOM     15  N   UNL     1      29.759  19.689 117.865 -0.18 -0.00    +0.000 N 
DOCKED: ATOM     16  H   UNL     1      29.378  20.047 116.988 +0.01 -0.00    +0.000 HD
DOCKED: BRANCH  13  15
DOCKED: ATOM     17  C   UNL     1      28.800  18.645 118.286 -0.29 -0.00    +0.000 C 
DOCKED: ATOM     18  C   UNL     1      28.808  17.404 117.390 -0.30 -0.00    +0.000 C 
DOCKED: ENDBRANCH  13  15
DOCKED: BRANCH  13  17
DOCKED: ATOM     19  C   UNL     1      29.758  20.919 118.698 -0.29 -0.00    +0.000 C 
DOCKED: ATOM     20  C   UNL     1      28.390  21.305 119.277 -0.31 -0.00    +0.000 C 
DOCKED: ENDBRANCH  13  17
DOCKED: ENDBRANCH  12  13
DOCKED: ENDBRANCH   7  12
DOCKED: ENDBRANCH   1   2
DOCKED: BRANCH   1  19
DOCKED: ATOM     21  O   UNL     1      37.824  17.489 122.729 -0.17 -0.00    +0.000 OA
DOCKED: BRANCH  19  21
DOCKED: ATOM     22  O   UNL     1      39.019  15.653 122.006 -0.28 -0.00    +0.000 OA
DOCKED: ATOM     23  C   UNL     1      37.950  16.117 122.490 -0.28 -0.00    +0.000 C 
DOCKED: ATOM     24  N   UNL     1      36.833  15.258 122.757 -0.34 -0.00    +0.000 N 
DOCKED: ATOM     25  H   UNL     1      35.982  15.679 123.020 -0.01 -0.00    +0.000 HD
DOCKED: BRANCH  22  24
DOCKED: ATOM     26  C   UNL     1      36.874  13.824 122.668 -0.44 -0.00    +0.000 A 
DOCKED: ATOM     27  C   UNL     1      37.079  13.218 121.420 -0.41 -0.00    +0.000 A 
DOCKED: ATOM     28  C   UNL     1      37.097  11.826 121.300 -0.48 -0.00    +0.000 A 
DOCKED: ATOM     29  C   UNL     1      36.886  11.010 122.427 -0.53 -0.00    +0.000 A 
DOCKED: ATOM     30  C   UNL     1      36.673  11.620 123.676 -0.62 -0.00    +0.000 A 
DOCKED: ATOM     31  C   UNL     1      36.656  13.013 123.794 -0.50 -0.00    +0.000 A 
DOCKED: ATOM     32  CM  UNL     1      36.877  12.418 122.548 +0.00 -0.00    +0.000 AC
DOCKED: BRANCH  27  30
DOCKED: ATOM     33  C   UNL     1      36.898   9.529 122.319 -0.65 -0.00    +0.000 C 
DOCKED: ATOM     34  N   UNL     1      37.155   8.699 123.458 -0.62 -0.00    +0.000 N 
DOCKED: ATOM     35  O   UNL     1      37.058   7.354 123.355 -2.40 -0.00    +0.000 OA
DOCKED: ATOM     36  O   UNL     1      36.692   8.985 121.200 -2.62 -0.00    +0.000 OA
DOCKED: ATOM     37  H   UNL     1      37.402   9.110 124.317 -0.62 -0.00    +0.000 HD
DOCKED: ENDBRANCH  27  30
DOCKED: ENDBRANCH  22  24
DOCKED: ENDBRANCH  19  21
DOCKED: ENDBRANCH   1  19
DOCKED: TORSDOF 9DOCKED: TER
DOCKED: ENDMDL
________________________________________________________________________________


	BEGINNING GENETIC ALGORITHM DOCKING 64 of 100
Run: 64 Seed: 1062842998 1742970245 [ Run 64 of 100 GA/GALS ]
Beginning LAMARCKIAN GENETIC ALGORITHM (LGA), with a maximum of 2500000 energy evaluations.

Final-Value: -17.989


	FINAL GENETIC ALGORITHM DOCKED STATE
	_______________________________________________


Detailed state:  trans 37.759 16.518 123.233 quatxyzw -0.495349 -0.407475 0.069719 0.764024 center 1.619 0.086 0.013 ntor 9 -103.6698 -19.0778 12.4116 -41.1461 -111.4725 -179.5444 -121.9478 -135.4693 165.5261
State:	 37.759  16.518 123.233  -0.768 -0.632  0.108 80.360   -103.67  -19.08   12.41  -41.15 -111.47 -179.54 -121.95 -135.47  165.53

DOCKED: MODEL       64
DOCKED: USER    Run = 64
DOCKED: USER    DPF = ligand_dock.biased.dpf
DOCKED: USER  
DOCKED: USER    Estimated Free Energy of Binding    =  -13.51 kcal/mol  [=(1)+(2)+(3)-(4)]
DOCKED: USER    Estimated Inhibition Constant, Ki   =  125.30 pM (picomolar)  [Temperature = 298.15 K]
DOCKED: USER    
DOCKED: USER    (1) Final Intermolecular Energy     =  -16.19 kcal/mol
DOCKED: USER        vdW + Hbond + desolv Energy     =  -16.19 kcal/mol
DOCKED: USER        Electrostatic Energy            =   +0.00 kcal/mol
DOCKED: USER    (2) Final Total Internal Energy     =   -1.80 kcal/mol
DOCKED: USER    (3) Torsional Free Energy           =   +2.68 kcal/mol
DOCKED: USER    (4) Unbound System's Energy  [=(2)] =   -1.80 kcal/mol
DOCKED: USER    
DOCKED: USER    
DOCKED: USER    NEWDPF move ligand.dum.pdbqt
DOCKED: USER    NEWDPF about 1.619000 0.086000 0.013000
DOCKED: USER    NEWDPF tran0 37.758976 16.517604 123.233039
DOCKED: USER    NEWDPF quaternion0 -0.495349 -0.407475 0.069719 0.764024
DOCKED: USER    NEWDPF axisangle0 -0.767759 -0.631561 0.108059 80.359537
DOCKED: USER    NEWDPF quat0 -0.767759 -0.631561 0.108059 80.359537
DOCKED: USER    NEWDPF dihe0 -103.67 -19.08 12.41 -41.15 -111.47 -179.54 -121.95 -135.47 165.53 
DOCKED: USER  keepresnum = 1 
DOCKED: USER  
DOCKED: REMARK  Name = 
DOCKED: REMARK  11 active torsions:
DOCKED: REMARK  status: ('A' for Active; 'I' for Inactive)
DOCKED: REMARK    1  A    between atoms: C_2  and  O_3
DOCKED: REMARK    2  A    between atoms: O_3  and  C_4
DOCKED: REMARK    3  A    between atoms: C_4  and  C_5
DOCKED: REMARK    4  A    between atoms: C_10  and  C_11
DOCKED: REMARK    5  A    between atoms: C_11  and  N_12
DOCKED: REMARK    6  A    between atoms: N_12  and  C_13
DOCKED: REMARK    7  A    between atoms: N_12  and  C_15
DOCKED: REMARK    8  A    between atoms: C_13  and  C_14
DOCKED: REMARK    9  A    between atoms: C_15  and  C_16
DOCKED: REMARK   10  A    between atoms: N_21  and  C_22
DOCKED: REMARK   11  A    between atoms: C_25  and  C_26
DOCKED: REMARK                            x       y       z     vdW  Elec       q    Type
DOCKED: REMARK                         _______ _______ _______ _____ _____    ______ ____
DOCKED: USER                              x       y       z     vdW  Elec       q    Type
DOCKED: USER                           _______ _______ _______ _____ _____    ______ ____
DOCKED: ROOT
DOCKED: ATOM      1  C   UNL     1      36.530  18.370 122.341 -0.19 -0.00    +0.000 C 
DOCKED: ENDROOT
DOCKED: BRANCH   1   2
DOCKED: ATOM      2  C   UNL     1      35.696  17.820 123.463 -0.26 -0.00    +0.000 A 
DOCKED: ATOM      3  C   UNL     1      34.876  16.700 123.260 -0.39 -0.00    +0.000 A 
DOCKED: ATOM      4  C   UNL     1      34.088  16.202 124.303 -0.45 -0.00    +0.000 A 
DOCKED: ATOM      5  C   UNL     1      34.100  16.828 125.558 -0.40 -0.00    +0.000 A 
DOCKED: ATOM      6  C   UNL     1      33.305  16.341 126.607 -0.27 -0.00    +0.000 A 
DOCKED: ATOM      7  C   UNL     1      33.293  16.991 127.852 -0.36 -0.00    +0.000 A 
DOCKED: ATOM      8  C   UNL     1      34.118  18.109 128.054 -0.19 -0.00    +0.000 A 
DOCKED: ATOM      9  C   UNL     1      34.919  18.596 127.016 -0.18 -0.00    +0.000 A 
DOCKED: ATOM     10  C   UNL     1      34.914  17.966 125.764 -0.27 -0.00    +0.000 A 
DOCKED: ATOM     11  C   UNL     1      35.708  18.454 124.715 -0.23 -0.00    +0.000 A 
DOCKED: ATOM     12  CM  UNL     1      34.897  17.328 124.510 -0.35 -0.00    +0.000 AC
DOCKED: ATOM     13  CM  UNL     1      34.108  17.472 126.809 -0.04 -0.00    +0.000 AC
DOCKED: BRANCH   7  12
DOCKED: ATOM     14  C   UNL     1      32.445  16.454 128.977 -0.36 -0.00    +0.000 C 
DOCKED: BRANCH  12  13
DOCKED: ATOM     15  N   UNL     1      32.247  17.479 130.026 -0.26 -0.00    +0.000 N 
DOCKED: ATOM     16  H   UNL     1      32.709  18.293 129.620 +0.01 -0.00    +0.000 HD
DOCKED: BRANCH  13  15
DOCKED: ATOM     17  C   UNL     1      30.842  17.902 130.206 -0.35 -0.00    +0.000 C 
DOCKED: ATOM     18  C   UNL     1      30.014  17.852 128.919 -0.43 -0.00    +0.000 C 
DOCKED: ENDBRANCH  13  15
DOCKED: BRANCH  13  17
DOCKED: ATOM     19  C   UNL     1      33.021  17.311 131.283 -0.22 -0.00    +0.000 C 
DOCKED: ATOM     20  C   UNL     1      32.735  16.012 132.048 -0.31 -0.00    +0.000 C 
DOCKED: ENDBRANCH  13  17
DOCKED: ENDBRANCH  12  13
DOCKED: ENDBRANCH   7  12
DOCKED: ENDBRANCH   1   2
DOCKED: BRANCH   1  19
DOCKED: ATOM     21  O   UNL     1      37.774  17.680 122.299 -0.13 -0.00    +0.000 OA
DOCKED: BRANCH  19  21
DOCKED: ATOM     22  O   UNL     1      38.574  15.813 123.392 -0.34 -0.00    +0.000 OA
DOCKED: ATOM     23  C   UNL     1      37.876  16.295 122.457 -0.26 -0.00    +0.000 C 
DOCKED: ATOM     24  N   UNL     1      37.218  15.435 121.517 -0.24 -0.00    +0.000 N 
DOCKED: ATOM     25  H   UNL     1      36.785  15.853 120.737 -0.00 -0.00    +0.000 HD
DOCKED: BRANCH  22  24
DOCKED: ATOM     26  C   UNL     1      37.147  14.005 121.637 -0.34 -0.00    +0.000 A 
DOCKED: ATOM     27  C   UNL     1      37.030  13.426 122.909 -0.50 -0.00    +0.000 A 
DOCKED: ATOM     28  C   UNL     1      36.985  12.038 123.057 -0.58 -0.00    +0.000 A 
DOCKED: ATOM     29  C   UNL     1      37.079  11.196 121.933 -0.46 -0.00    +0.000 A 
DOCKED: ATOM     30  C   UNL     1      37.202  11.779 120.658 -0.40 -0.00    +0.000 A 
DOCKED: ATOM     31  C   UNL     1      37.246  13.169 120.513 -0.41 -0.00    +0.000 A 
DOCKED: ATOM     32  CM  UNL     1      37.115  12.602 121.784 +0.00 -0.00    +0.000 AC
DOCKED: BRANCH  27  30
DOCKED: ATOM     33  C   UNL     1      37.036   9.719 122.069 -0.60 -0.00    +0.000 C 
DOCKED: ATOM     34  N   UNL     1      37.109   9.084 123.351 -0.58 -0.00    +0.000 N 
DOCKED: ATOM     35  O   UNL     1      36.964   7.744 123.456 -2.63 -0.00    +0.000 OA
DOCKED: ATOM     36  O   UNL     1      36.947   9.001 121.036 -2.68 -0.00    +0.000 OA
DOCKED: ATOM     37  H   UNL     1      37.266   9.626 124.158 -0.59 -0.00    +0.000 HD
DOCKED: ENDBRANCH  27  30
DOCKED: ENDBRANCH  22  24
DOCKED: ENDBRANCH  19  21
DOCKED: ENDBRANCH   1  19
DOCKED: TORSDOF 9DOCKED: TER
DOCKED: ENDMDL
________________________________________________________________________________


	BEGINNING GENETIC ALGORITHM DOCKING 65 of 100
Run: 65 Seed: 844817000 507218915 [ Run 65 of 100 GA/GALS ]
Beginning LAMARCKIAN GENETIC ALGORITHM (LGA), with a maximum of 2500000 energy evaluations.

Final-Value: -17.548


	FINAL GENETIC ALGORITHM DOCKED STATE
	_______________________________________________


Detailed state:  trans 34.951 17.186 123.241 quatxyzw 0.327575 -0.265394 0.059827 -0.904810 center 1.619 0.086 0.013 ntor 9 100.0492 100.5968 -171.1654 -75.8166 92.2698 -76.7430 -145.7820 -94.9365 -113.0861
State:	 34.951  17.186 123.241   0.769 -0.623  0.141 -50.405    100.05  100.60 -171.17  -75.82   92.27  -76.74 -145.78  -94.94 -113.09

DOCKED: MODEL       65
DOCKED: USER    Run = 65
DOCKED: USER    DPF = ligand_dock.biased.dpf
DOCKED: USER  
DOCKED: USER    Estimated Free Energy of Binding    =  -13.33 kcal/mol  [=(1)+(2)+(3)-(4)]
DOCKED: USER    Estimated Inhibition Constant, Ki   =  170.43 pM (picomolar)  [Temperature = 298.15 K]
DOCKED: USER    
DOCKED: USER    (1) Final Intermolecular Energy     =  -16.01 kcal/mol
DOCKED: USER        vdW + Hbond + desolv Energy     =  -16.01 kcal/mol
DOCKED: USER        Electrostatic Energy            =   +0.00 kcal/mol
DOCKED: USER    (2) Final Total Internal Energy     =   -1.54 kcal/mol
DOCKED: USER    (3) Torsional Free Energy           =   +2.68 kcal/mol
DOCKED: USER    (4) Unbound System's Energy  [=(2)] =   -1.54 kcal/mol
DOCKED: USER    
DOCKED: USER    
DOCKED: USER    NEWDPF move ligand.dum.pdbqt
DOCKED: USER    NEWDPF about 1.619000 0.086000 0.013000
DOCKED: USER    NEWDPF tran0 34.950614 17.186297 123.240906
DOCKED: USER    NEWDPF quaternion0 0.327575 -0.265394 0.059827 -0.904810
DOCKED: USER    NEWDPF axisangle0 0.769290 -0.623260 0.140500 -50.404557
DOCKED: USER    NEWDPF quat0 0.769290 -0.623260 0.140500 -50.404557
DOCKED: USER    NEWDPF dihe0 100.05 100.60 -171.17 -75.82 92.27 -76.74 -145.78 -94.94 -113.09 
DOCKED: USER  keepresnum = 1 
DOCKED: USER  
DOCKED: REMARK  Name = 
DOCKED: REMARK  11 active torsions:
DOCKED: REMARK  status: ('A' for Active; 'I' for Inactive)
DOCKED: REMARK    1  A    between atoms: C_2  and  O_3
DOCKED: REMARK    2  A    between atoms: O_3  and  C_4
DOCKED: REMARK    3  A    between atoms: C_4  and  C_5
DOCKED: REMARK    4  A    between atoms: C_10  and  C_11
DOCKED: REMARK    5  A    between atoms: C_11  and  N_12
DOCKED: REMARK    6  A    between atoms: N_12  and  C_13
DOCKED: REMARK    7  A    between atoms: N_12  and  C_15
DOCKED: REMARK    8  A    between atoms: C_13  and  C_14
DOCKED: REMARK    9  A    between atoms: C_15  and  C_16
DOCKED: REMARK   10  A    between atoms: N_21  and  C_22
DOCKED: REMARK   11  A    between atoms: C_25  and  C_26
DOCKED: REMARK                            x       y       z     vdW  Elec       q    Type
DOCKED: REMARK                         _______ _______ _______ _____ _____    ______ ____
DOCKED: USER                              x       y       z     vdW  Elec       q    Type
DOCKED: USER                           _______ _______ _______ _____ _____    ______ ____
DOCKED: ROOT
DOCKED: ATOM      1  C   UNL     1      36.382  18.374 121.732 -0.19 -0.00    +0.000 C 
DOCKED: ENDROOT
DOCKED: BRANCH   1   2
DOCKED: ATOM      2  C   UNL     1      35.009  18.423 121.126 -0.26 -0.00    +0.000 A 
DOCKED: ATOM      3  C   UNL     1      33.923  17.810 121.768 -0.32 -0.00    +0.000 A 
DOCKED: ATOM      4  C   UNL     1      32.649  17.842 121.191 +0.00 -0.00    +0.000 A 
DOCKED: ATOM      5  C   UNL     1      32.450  18.476 119.956 -0.40 -0.00    +0.000 A 
DOCKED: ATOM      6  C   UNL     1      31.177  18.504 119.365 -0.43 -0.00    +0.000 A 
DOCKED: ATOM      7  C   UNL     1      30.988  19.110 118.112 -0.23 -0.00    +0.000 A 
DOCKED: ATOM      8  C   UNL     1      32.076  19.725 117.473 -0.13 -0.00    +0.000 A 
DOCKED: ATOM      9  C   UNL     1      33.345  19.708 118.058 -0.16 -0.00    +0.000 A 
DOCKED: ATOM     10  C   UNL     1      33.544  19.082 119.296 -0.26 -0.00    +0.000 A 
DOCKED: ATOM     11  C   UNL     1      34.817  19.053 119.887 -0.20 -0.00    +0.000 A 
DOCKED: ATOM     12  CM  UNL     1      33.732  18.447 120.538 +0.00 -0.00    +0.000 AC
DOCKED: ATOM     13  CM  UNL     1      32.263  19.101 118.710 +0.00 -0.00    +0.000 AC
DOCKED: BRANCH   7  12
DOCKED: ATOM     14  C   UNL     1      29.616  19.147 117.489 -0.19 -0.00    +0.000 C 
DOCKED: BRANCH  12  13
DOCKED: ATOM     15  N   UNL     1      28.582  19.454 118.502 -0.25 -0.00    +0.000 N 
DOCKED: ATOM     16  H   UNL     1      28.983  19.047 119.348 -0.43 -0.00    +0.000 HD
DOCKED: BRANCH  13  15
DOCKED: ATOM     17  C   UNL     1      28.442  20.892 118.813 -0.28 -0.00    +0.000 C 
DOCKED: ATOM     18  C   UNL     1      27.250  21.215 119.716 -0.33 -0.00    +0.000 C 
DOCKED: ENDBRANCH  13  15
DOCKED: BRANCH  13  17
DOCKED: ATOM     19  C   UNL     1      27.304  18.703 118.405 -0.30 -0.00    +0.000 C 
DOCKED: ATOM     20  C   UNL     1      27.443  17.177 118.502 -0.41 -0.00    +0.000 C 
DOCKED: ENDBRANCH  13  17
DOCKED: ENDBRANCH  12  13
DOCKED: ENDBRANCH   7  12
DOCKED: ENDBRANCH   1   2
DOCKED: BRANCH   1  19
DOCKED: ATOM     21  O   UNL     1      36.309  17.758 123.013 -0.22 -0.00    +0.000 OA
DOCKED: BRANCH  19  21
DOCKED: ATOM     22  O   UNL     1      35.626  15.847 124.110 -0.48 -0.00    +0.000 OA
DOCKED: ATOM     23  C   UNL     1      36.308  16.371 123.187 -0.34 -0.00    +0.000 C 
DOCKED: ATOM     24  N   UNL     1      37.129  15.562 122.333 -0.28 -0.00    +0.000 N 
DOCKED: ATOM     25  H   UNL     1      37.734  16.022 121.707 +0.00 -0.00    +0.000 HD
DOCKED: BRANCH  22  24
DOCKED: ATOM     26  C   UNL     1      37.127  14.125 122.331 -0.40 -0.00    +0.000 A 
DOCKED: ATOM     27  C   UNL     1      37.172  13.439 121.108 -0.38 -0.00    +0.000 A 
DOCKED: ATOM     28  C   UNL     1      37.144  12.043 121.075 -0.47 -0.00    +0.000 A 
DOCKED: ATOM     29  C   UNL     1      37.047  11.302 122.267 -0.50 -0.00    +0.000 A 
DOCKED: ATOM     30  C   UNL     1      36.995  11.992 123.492 -0.60 -0.00    +0.000 A 
DOCKED: ATOM     31  C   UNL     1      37.024  13.389 123.523 -0.47 -0.00    +0.000 A 
DOCKED: ATOM     32  CM  UNL     1      37.084  12.715 122.300 +0.00 -0.00    +0.000 AC
DOCKED: BRANCH  27  30
DOCKED: ATOM     33  C   UNL     1      37.014   9.817 122.253 -0.60 -0.00    +0.000 C 
DOCKED: ATOM     34  N   UNL     1      37.202   9.054 123.449 -0.53 -0.00    +0.000 N 
DOCKED: ATOM     35  O   UNL     1      37.064   7.709 123.426 -2.68 -0.00    +0.000 OA
DOCKED: ATOM     36  O   UNL     1      36.829   9.211 121.162 -2.66 -0.00    +0.000 OA
DOCKED: ATOM     37  H   UNL     1      37.433   9.510 124.290 -0.64 -0.00    +0.000 HD
DOCKED: ENDBRANCH  27  30
DOCKED: ENDBRANCH  22  24
DOCKED: ENDBRANCH  19  21
DOCKED: ENDBRANCH   1  19
DOCKED: TORSDOF 9DOCKED: TER
DOCKED: ENDMDL
________________________________________________________________________________


	BEGINNING GENETIC ALGORITHM DOCKING 66 of 100
Run: 66 Seed: 944579113 1706132224 [ Run 66 of 100 GA/GALS ]
Beginning LAMARCKIAN GENETIC ALGORITHM (LGA), with a maximum of 2500000 energy evaluations.

Final-Value: -17.743


	FINAL GENETIC ALGORITHM DOCKED STATE
	_______________________________________________


Detailed state:  trans 34.281 16.501 123.339 quatxyzw 0.375889 -0.509708 0.240583 -0.735544 center 1.619 0.086 0.013 ntor 9 -178.4231 -179.8245 172.9409 -47.3136 168.9305 -52.2892 178.0669 -99.8816 116.3775
State:	 34.281  16.501 123.339   0.555 -0.752  0.355 -85.294   -178.42 -179.82  172.94  -47.31  168.93  -52.29  178.07  -99.88  116.38

DOCKED: MODEL       66
DOCKED: USER    Run = 66
DOCKED: USER    DPF = ligand_dock.biased.dpf
DOCKED: USER  
DOCKED: USER    Estimated Free Energy of Binding    =  -13.36 kcal/mol  [=(1)+(2)+(3)-(4)]
DOCKED: USER    Estimated Inhibition Constant, Ki   =  160.87 pM (picomolar)  [Temperature = 298.15 K]
DOCKED: USER    
DOCKED: USER    (1) Final Intermolecular Energy     =  -16.05 kcal/mol
DOCKED: USER        vdW + Hbond + desolv Energy     =  -16.05 kcal/mol
DOCKED: USER        Electrostatic Energy            =   +0.00 kcal/mol
DOCKED: USER    (2) Final Total Internal Energy     =   -1.70 kcal/mol
DOCKED: USER    (3) Torsional Free Energy           =   +2.68 kcal/mol
DOCKED: USER    (4) Unbound System's Energy  [=(2)] =   -1.70 kcal/mol
DOCKED: USER    
DOCKED: USER    
DOCKED: USER    NEWDPF move ligand.dum.pdbqt
DOCKED: USER    NEWDPF about 1.619000 0.086000 0.013000
DOCKED: USER    NEWDPF tran0 34.280892 16.500792 123.339104
DOCKED: USER    NEWDPF quaternion0 0.375889 -0.509708 0.240583 -0.735544
DOCKED: USER    NEWDPF axisangle0 0.554837 -0.752362 0.355116 -85.293591
DOCKED: USER    NEWDPF quat0 0.554837 -0.752362 0.355116 -85.293591
DOCKED: USER    NEWDPF dihe0 -178.42 -179.82 172.94 -47.31 168.93 -52.29 178.07 -99.88 116.38 
DOCKED: USER  keepresnum = 1 
DOCKED: USER  
DOCKED: REMARK  Name = 
DOCKED: REMARK  11 active torsions:
DOCKED: REMARK  status: ('A' for Active; 'I' for Inactive)
DOCKED: REMARK    1  A    between atoms: C_2  and  O_3
DOCKED: REMARK    2  A    between atoms: O_3  and  C_4
DOCKED: REMARK    3  A    between atoms: C_4  and  C_5
DOCKED: REMARK    4  A    between atoms: C_10  and  C_11
DOCKED: REMARK    5  A    between atoms: C_11  and  N_12
DOCKED: REMARK    6  A    between atoms: N_12  and  C_13
DOCKED: REMARK    7  A    between atoms: N_12  and  C_15
DOCKED: REMARK    8  A    between atoms: C_13  and  C_14
DOCKED: REMARK    9  A    between atoms: C_15  and  C_16
DOCKED: REMARK   10  A    between atoms: N_21  and  C_22
DOCKED: REMARK   11  A    between atoms: C_25  and  C_26
DOCKED: REMARK                            x       y       z     vdW  Elec       q    Type
DOCKED: REMARK                         _______ _______ _______ _____ _____    ______ ____
DOCKED: USER                              x       y       z     vdW  Elec       q    Type
DOCKED: USER                           _______ _______ _______ _____ _____    ______ ____
DOCKED: ROOT
DOCKED: ATOM      1  C   UNL     1      35.987  18.167 123.108 -0.24 -0.00    +0.000 C 
DOCKED: ENDROOT
DOCKED: BRANCH   1   2
DOCKED: ATOM      2  C   UNL     1      35.276  18.114 121.786 -0.27 -0.00    +0.000 A 
DOCKED: ATOM      3  C   UNL     1      36.000  18.008 120.589 -0.17 -0.00    +0.000 A 
DOCKED: ATOM      4  C   UNL     1      35.335  17.977 119.359 -0.16 -0.00    +0.000 A 
DOCKED: ATOM      5  C   UNL     1      33.937  18.066 119.311 -0.17 -0.00    +0.000 A 
DOCKED: ATOM      6  C   UNL     1      33.262  18.046 118.081 -0.17 -0.00    +0.000 A 
DOCKED: ATOM      7  C   UNL     1      31.864  18.170 118.034 -0.21 -0.00    +0.000 A 
DOCKED: ATOM      8  C   UNL     1      31.140  18.272 119.233 -0.40 -0.00    +0.000 A 
DOCKED: ATOM      9  C   UNL     1      31.804  18.285 120.464 -0.39 -0.00    +0.000 A 
DOCKED: ATOM     10  C   UNL     1      33.201  18.188 120.513 -0.32 -0.00    +0.000 A 
DOCKED: ATOM     11  C   UNL     1      33.876  18.209 121.743 -0.15 -0.00    +0.000 A 
DOCKED: ATOM     12  CM  UNL     1      34.605  18.094 120.550 +0.00 -0.00    +0.000 AC
DOCKED: ATOM     13  CM  UNL     1      32.534  18.171 119.273 +0.00 -0.00    +0.000 AC
DOCKED: BRANCH   7  12
DOCKED: ATOM     14  C   UNL     1      31.145  18.135 116.709 -0.14 -0.00    +0.000 C 
DOCKED: BRANCH  12  13
DOCKED: ATOM     15  N   UNL     1      30.216  16.986 116.640 -0.19 -0.00    +0.000 N 
DOCKED: ATOM     16  H   UNL     1      30.378  16.525 117.537 -0.01 -0.00    +0.000 HD
DOCKED: BRANCH  13  15
DOCKED: ATOM     17  C   UNL     1      28.785  17.357 116.668 -0.23 -0.00    +0.000 C 
DOCKED: ATOM     18  C   UNL     1      28.094  17.050 117.998 -0.41 -0.00    +0.000 C 
DOCKED: ENDBRANCH  13  15
DOCKED: BRANCH  13  17
DOCKED: ATOM     19  C   UNL     1      30.567  15.896 115.694 -0.27 -0.00    +0.000 C 
DOCKED: ATOM     20  C   UNL     1      30.334  14.476 116.230 -0.41 -0.00    +0.000 C 
DOCKED: ENDBRANCH  13  17
DOCKED: ENDBRANCH  12  13
DOCKED: ENDBRANCH   7  12
DOCKED: ENDBRANCH   1   2
DOCKED: BRANCH   1  19
DOCKED: ATOM     21  O   UNL     1      35.322  17.312 124.032 -0.35 -0.00    +0.000 OA
DOCKED: BRANCH  19  21
DOCKED: ATOM     22  O   UNL     1      34.880  15.213 124.881 -0.61 -0.00    +0.000 OA
DOCKED: ATOM     23  C   UNL     1      35.479  15.923 124.027 -0.48 -0.00    +0.000 C 
DOCKED: ATOM     24  N   UNL     1      36.364  15.326 123.069 -0.38 -0.00    +0.000 N 
DOCKED: ATOM     25  H   UNL     1      36.900  15.927 122.501 -0.00 -0.00    +0.000 HD
DOCKED: BRANCH  22  24
DOCKED: ATOM     26  C   UNL     1      36.520  13.910 122.881 -0.44 -0.00    +0.000 A 
DOCKED: ATOM     27  C   UNL     1      37.114  13.433 121.704 -0.40 -0.00    +0.000 A 
DOCKED: ATOM     28  C   UNL     1      37.254  12.060 121.484 -0.46 -0.00    +0.000 A 
DOCKED: ATOM     29  C   UNL     1      36.781  11.133 122.431 -0.56 -0.00    +0.000 A 
DOCKED: ATOM     30  C   UNL     1      36.180  11.614 123.608 -0.61 -0.00    +0.000 A 
DOCKED: ATOM     31  C   UNL     1      36.041  12.988 123.826 -0.53 -0.00    +0.000 A 
DOCKED: ATOM     32  CM  UNL     1      36.648  12.523 122.656 +0.00 -0.00    +0.000 AC
DOCKED: BRANCH  27  30
DOCKED: ATOM     33  C   UNL     1      36.918   9.671 122.214 -0.63 -0.00    +0.000 C 
DOCKED: ATOM     34  N   UNL     1      37.042   8.761 123.313 -0.66 -0.00    +0.000 N 
DOCKED: ATOM     35  O   UNL     1      37.061   7.427 123.092 -2.37 -0.00    +0.000 OA
DOCKED: ATOM     36  O   UNL     1      36.941   9.217 121.037 -2.69 -0.00    +0.000 OA
DOCKED: ATOM     37  H   UNL     1      37.113   9.108 124.231 -0.57 -0.00    +0.000 HD
DOCKED: ENDBRANCH  27  30
DOCKED: ENDBRANCH  22  24
DOCKED: ENDBRANCH  19  21
DOCKED: ENDBRANCH   1  19
DOCKED: TORSDOF 9DOCKED: TER
DOCKED: ENDMDL
________________________________________________________________________________


	BEGINNING GENETIC ALGORITHM DOCKING 67 of 100
Run: 67 Seed: 317431044 835880889 [ Run 67 of 100 GA/GALS ]
Beginning LAMARCKIAN GENETIC ALGORITHM (LGA), with a maximum of 2500000 energy evaluations.

Final-Value: -17.001


	FINAL GENETIC ALGORITHM DOCKED STATE
	_______________________________________________


Detailed state:  trans 35.682 17.173 121.004 quatxyzw -0.792455 -0.034061 0.586866 0.162614 center 1.619 0.086 0.013 ntor 9 178.5179 -170.0998 -180.0000 0.8937 180.0000 -179.9910 -162.7573 108.2912 61.4069
State:	 35.682  17.173 121.004  -0.803 -0.035  0.595 161.283    178.52 -170.10 -180.00    0.89  180.00 -179.99 -162.76  108.29   61.41

DOCKED: MODEL       67
DOCKED: USER    Run = 67
DOCKED: USER    DPF = ligand_dock.biased.dpf
DOCKED: USER  
DOCKED: USER    Estimated Free Energy of Binding    =  -12.54 kcal/mol  [=(1)+(2)+(3)-(4)]
DOCKED: USER    Estimated Inhibition Constant, Ki   =  641.31 pM (picomolar)  [Temperature = 298.15 K]
DOCKED: USER    
DOCKED: USER    (1) Final Intermolecular Energy     =  -15.23 kcal/mol
DOCKED: USER        vdW + Hbond + desolv Energy     =  -15.23 kcal/mol
DOCKED: USER        Electrostatic Energy            =   +0.00 kcal/mol
DOCKED: USER    (2) Final Total Internal Energy     =   -1.77 kcal/mol
DOCKED: USER    (3) Torsional Free Energy           =   +2.68 kcal/mol
DOCKED: USER    (4) Unbound System's Energy  [=(2)] =   -1.77 kcal/mol
DOCKED: USER    
DOCKED: USER    
DOCKED: USER    NEWDPF move ligand.dum.pdbqt
DOCKED: USER    NEWDPF about 1.619000 0.086000 0.013000
DOCKED: USER    NEWDPF tran0 35.681748 17.172804 121.003639
DOCKED: USER    NEWDPF quaternion0 -0.792455 -0.034061 0.586866 0.162614
DOCKED: USER    NEWDPF axisangle0 -0.803145 -0.034520 0.594783 161.282642
DOCKED: USER    NEWDPF quat0 -0.803145 -0.034520 0.594783 161.282642
DOCKED: USER    NEWDPF dihe0 178.52 -170.10 -180.00 0.89 180.00 -179.99 -162.76 108.29 61.41 
DOCKED: USER  keepresnum = 1 
DOCKED: USER  
DOCKED: REMARK  Name = 
DOCKED: REMARK  11 active torsions:
DOCKED: REMARK  status: ('A' for Active; 'I' for Inactive)
DOCKED: REMARK    1  A    between atoms: C_2  and  O_3
DOCKED: REMARK    2  A    between atoms: O_3  and  C_4
DOCKED: REMARK    3  A    between atoms: C_4  and  C_5
DOCKED: REMARK    4  A    between atoms: C_10  and  C_11
DOCKED: REMARK    5  A    between atoms: C_11  and  N_12
DOCKED: REMARK    6  A    between atoms: N_12  and  C_13
DOCKED: REMARK    7  A    between atoms: N_12  and  C_15
DOCKED: REMARK    8  A    between atoms: C_13  and  C_14
DOCKED: REMARK    9  A    between atoms: C_15  and  C_16
DOCKED: REMARK   10  A    between atoms: N_21  and  C_22
DOCKED: REMARK   11  A    between atoms: C_25  and  C_26
DOCKED: REMARK                            x       y       z     vdW  Elec       q    Type
DOCKED: REMARK                         _______ _______ _______ _____ _____    ______ ____
DOCKED: USER                              x       y       z     vdW  Elec       q    Type
DOCKED: USER                           _______ _______ _______ _____ _____    ______ ____
DOCKED: ROOT
DOCKED: ATOM      1  C   UNL     1      37.869  18.130 121.202 -0.09 -0.00    +0.000 C 
DOCKED: ENDROOT
DOCKED: BRANCH   1   2
DOCKED: ATOM      2  C   UNL     1      37.260  18.199 122.573 -0.13 -0.00    +0.000 A 
DOCKED: ATOM      3  C   UNL     1      38.016  18.640 123.669 -0.13 -0.00    +0.000 A 
DOCKED: ATOM      4  C   UNL     1      37.450  18.685 124.947 -0.16 -0.00    +0.000 A 
DOCKED: ATOM      5  C   UNL     1      36.124  18.275 125.147 -0.20 -0.00    +0.000 A 
DOCKED: ATOM      6  C   UNL     1      35.551  18.307 126.428 -0.13 -0.00    +0.000 A 
DOCKED: ATOM      7  C   UNL     1      34.234  17.863 126.630 -0.28 -0.00    +0.000 A 
DOCKED: ATOM      8  C   UNL     1      33.478  17.424 125.531 -0.10 -0.00    +0.000 A 
DOCKED: ATOM      9  C   UNL     1      34.039  17.395 124.250 -0.36 -0.00    +0.000 A 
DOCKED: ATOM     10  C   UNL     1      35.361  17.814 124.048 -0.29 -0.00    +0.000 A 
DOCKED: ATOM     11  C   UNL     1      35.934  17.780 122.768 -0.23 -0.00    +0.000 A 
DOCKED: ATOM     12  CM  UNL     1      36.691  18.233 123.859 -0.02 -0.00    +0.000 AC
DOCKED: ATOM     13  CM  UNL     1      34.798  17.846 125.339 -0.46 -0.00    +0.000 AC
DOCKED: BRANCH   7  12
DOCKED: ATOM     14  C   UNL     1      33.622  17.912 128.007 -0.26 -0.00    +0.000 C 
DOCKED: BRANCH  12  13
DOCKED: ATOM     15  N   UNL     1      32.305  18.584 127.977 -0.22 -0.00    +0.000 N 
DOCKED: ATOM     16  H   UNL     1      31.859  18.147 127.170 -0.28 -0.00    +0.000 HD
DOCKED: BRANCH  13  15
DOCKED: ATOM     17  C   UNL     1      31.424  18.248 129.116 -0.29 -0.00    +0.000 C 
DOCKED: ATOM     18  C   UNL     1      30.228  17.374 128.732 -0.48 -0.00    +0.000 C 
DOCKED: ENDBRANCH  13  15
DOCKED: BRANCH  13  17
DOCKED: ATOM     19  C   UNL     1      32.290  20.013 127.569 -0.20 -0.00    +0.000 C 
DOCKED: ATOM     20  C   UNL     1      31.020  20.460 126.833 -0.30 -0.00    +0.000 C 
DOCKED: ENDBRANCH  13  17
DOCKED: ENDBRANCH  12  13
DOCKED: ENDBRANCH   7  12
DOCKED: ENDBRANCH   1   2
DOCKED: BRANCH   1  19
DOCKED: ATOM     21  O   UNL     1      36.988  17.427 120.332 -0.12 -0.00    +0.000 OA
DOCKED: BRANCH  19  21
DOCKED: ATOM     22  O   UNL     1      36.310  15.423 119.412 -0.22 -0.00    +0.000 OA
DOCKED: ATOM     23  C   UNL     1      36.814  16.041 120.390 -0.20 -0.00    +0.000 C 
DOCKED: ATOM     24  N   UNL     1      37.173  15.344 121.592 -0.25 -0.00    +0.000 N 
DOCKED: ATOM     25  H   UNL     1      37.450  15.881 122.370 +0.00 -0.00    +0.000 HD
DOCKED: BRANCH  22  24
DOCKED: ATOM     26  C   UNL     1      37.155  13.914 121.735 -0.36 -0.00    +0.000 A 
DOCKED: ATOM     27  C   UNL     1      37.501  13.108 120.641 -0.42 -0.00    +0.000 A 
DOCKED: ATOM     28  C   UNL     1      37.468  11.715 120.745 -0.42 -0.00    +0.000 A 
DOCKED: ATOM     29  C   UNL     1      37.064  11.098 121.944 -0.47 -0.00    +0.000 A 
DOCKED: ATOM     30  C   UNL     1      36.711  11.909 123.038 -0.60 -0.00    +0.000 A 
DOCKED: ATOM     31  C   UNL     1      36.746  13.302 122.932 -0.51 -0.00    +0.000 A 
DOCKED: ATOM     32  CM  UNL     1      37.107  12.507 121.840 +0.00 -0.00    +0.000 AC
DOCKED: BRANCH  27  30
DOCKED: ATOM     33  C   UNL     1      37.020   9.620 122.073 -0.61 -0.00    +0.000 C 
DOCKED: ATOM     34  N   UNL     1      37.079   8.980 123.353 -0.61 -0.00    +0.000 N 
DOCKED: ATOM     35  O   UNL     1      36.933   7.639 123.449 -2.56 -0.00    +0.000 OA
DOCKED: ATOM     36  O   UNL     1      36.942   8.907 121.035 -2.68 -0.00    +0.000 OA
DOCKED: ATOM     37  H   UNL     1      37.227   9.518 124.163 -0.59 -0.00    +0.000 HD
DOCKED: ENDBRANCH  27  30
DOCKED: ENDBRANCH  22  24
DOCKED: ENDBRANCH  19  21
DOCKED: ENDBRANCH   1  19
DOCKED: TORSDOF 9DOCKED: TER
DOCKED: ENDMDL
________________________________________________________________________________


	BEGINNING GENETIC ALGORITHM DOCKING 68 of 100
Run: 68 Seed: 1924631840 1941165105 [ Run 68 of 100 GA/GALS ]
Beginning LAMARCKIAN GENETIC ALGORITHM (LGA), with a maximum of 2500000 energy evaluations.

Final-Value: -18.140


	FINAL GENETIC ALGORITHM DOCKED STATE
	_______________________________________________


Detailed state:  trans 37.532 16.597 123.814 quatxyzw -0.413118 -0.321239 0.175333 0.833905 center 1.619 0.086 0.013 ntor 9 -102.4088 -172.5650 178.7743 -29.8713 -1.0331 120.7674 101.2928 -89.2604 -171.9094
State:	 37.532  16.597 123.814  -0.749 -0.582  0.318 66.996   -102.41 -172.57  178.77  -29.87   -1.03  120.77  101.29  -89.26 -171.91

DOCKED: MODEL       68
DOCKED: USER    Run = 68
DOCKED: USER    DPF = ligand_dock.biased.dpf
DOCKED: USER  
DOCKED: USER    Estimated Free Energy of Binding    =  -14.08 kcal/mol  [=(1)+(2)+(3)-(4)]
DOCKED: USER    Estimated Inhibition Constant, Ki   =   47.48 pM (picomolar)  [Temperature = 298.15 K]
DOCKED: USER    
DOCKED: USER    (1) Final Intermolecular Energy     =  -16.77 kcal/mol
DOCKED: USER        vdW + Hbond + desolv Energy     =  -16.77 kcal/mol
DOCKED: USER        Electrostatic Energy            =   +0.00 kcal/mol
DOCKED: USER    (2) Final Total Internal Energy     =   -1.37 kcal/mol
DOCKED: USER    (3) Torsional Free Energy           =   +2.68 kcal/mol
DOCKED: USER    (4) Unbound System's Energy  [=(2)] =   -1.37 kcal/mol
DOCKED: USER    
DOCKED: USER    
DOCKED: USER    NEWDPF move ligand.dum.pdbqt
DOCKED: USER    NEWDPF about 1.619000 0.086000 0.013000
DOCKED: USER    NEWDPF tran0 37.532151 16.597495 123.814154
DOCKED: USER    NEWDPF quaternion0 -0.413118 -0.321239 0.175333 0.833905
DOCKED: USER    NEWDPF axisangle0 -0.748527 -0.582051 0.317685 66.995989
DOCKED: USER    NEWDPF quat0 -0.748527 -0.582051 0.317685 66.995989
DOCKED: USER    NEWDPF dihe0 -102.41 -172.57 178.77 -29.87 -1.03 120.77 101.29 -89.26 -171.91 
DOCKED: USER  keepresnum = 1 
DOCKED: USER  
DOCKED: REMARK  Name = 
DOCKED: REMARK  11 active torsions:
DOCKED: REMARK  status: ('A' for Active; 'I' for Inactive)
DOCKED: REMARK    1  A    between atoms: C_2  and  O_3
DOCKED: REMARK    2  A    between atoms: O_3  and  C_4
DOCKED: REMARK    3  A    between atoms: C_4  and  C_5
DOCKED: REMARK    4  A    between atoms: C_10  and  C_11
DOCKED: REMARK    5  A    between atoms: C_11  and  N_12
DOCKED: REMARK    6  A    between atoms: N_12  and  C_13
DOCKED: REMARK    7  A    between atoms: N_12  and  C_15
DOCKED: REMARK    8  A    between atoms: C_13  and  C_14
DOCKED: REMARK    9  A    between atoms: C_15  and  C_16
DOCKED: REMARK   10  A    between atoms: N_21  and  C_22
DOCKED: REMARK   11  A    between atoms: C_25  and  C_26
DOCKED: REMARK                            x       y       z     vdW  Elec       q    Type
DOCKED: REMARK                         _______ _______ _______ _____ _____    ______ ____
DOCKED: USER                              x       y       z     vdW  Elec       q    Type
DOCKED: USER                           _______ _______ _______ _____ _____    ______ ____
DOCKED: ROOT
DOCKED: ATOM      1  C   UNL     1      36.695  18.274 122.322 -0.17 -0.00    +0.000 C 
DOCKED: ENDROOT
DOCKED: BRANCH   1   2
DOCKED: ATOM      2  C   UNL     1      35.726  18.216 123.467 -0.23 -0.00    +0.000 A 
DOCKED: ATOM      3  C   UNL     1      35.058  17.023 123.779 -0.37 -0.00    +0.000 A 
DOCKED: ATOM      4  C   UNL     1      34.143  16.979 124.835 -0.41 -0.00    +0.000 A 
DOCKED: ATOM      5  C   UNL     1      33.873  18.133 125.584 -0.33 -0.00    +0.000 A 
DOCKED: ATOM      6  C   UNL     1      32.949  18.101 126.639 -0.21 -0.00    +0.000 A 
DOCKED: ATOM      7  C   UNL     1      32.655  19.267 127.365 -0.20 -0.00    +0.000 A 
DOCKED: ATOM      8  C   UNL     1      33.327  20.460 127.053 -0.15 -0.00    +0.000 A 
DOCKED: ATOM      9  C   UNL     1      34.255  20.500 126.008 -0.16 -0.00    +0.000 A 
DOCKED: ATOM     10  C   UNL     1      34.531  19.344 125.265 -0.20 -0.00    +0.000 A 
DOCKED: ATOM     11  C   UNL     1      35.455  19.377 124.209 -0.17 -0.00    +0.000 A 
DOCKED: ATOM     12  CM  UNL     1      34.798  18.178 124.523 -0.36 -0.00    +0.000 AC
DOCKED: ATOM     13  CM  UNL     1      33.598  19.301 126.319 -0.01 -0.00    +0.000 AC
DOCKED: BRANCH   7  12
DOCKED: ATOM     14  C   UNL     1      31.669  19.221 128.505 -0.20 -0.00    +0.000 C 
DOCKED: BRANCH  12  13
DOCKED: ATOM     15  N   UNL     1      30.396  18.600 128.079 -0.35 -0.00    +0.000 N 
DOCKED: ATOM     16  H   UNL     1      30.659  18.150 127.202 -0.57 -0.00    +0.000 HD
DOCKED: BRANCH  13  15
DOCKED: ATOM     17  C   UNL     1      29.941  17.490 128.944 -0.44 -0.00    +0.000 C 
DOCKED: ATOM     18  C   UNL     1      31.085  16.717 129.605 -0.44 -0.00    +0.000 C 
DOCKED: ENDBRANCH  13  15
DOCKED: BRANCH  13  17
DOCKED: ATOM     19  C   UNL     1      29.324  19.519 127.616 -0.49 -0.00    +0.000 C 
DOCKED: ATOM     20  C   UNL     1      28.437  18.961 126.494 -0.65 -0.00    +0.000 C 
DOCKED: ENDBRANCH  13  17
DOCKED: ENDBRANCH  12  13
DOCKED: ENDBRANCH   7  12
DOCKED: ENDBRANCH   1   2
DOCKED: BRANCH   1  19
DOCKED: ATOM     21  O   UNL     1      37.797  17.415 122.596 -0.17 -0.00    +0.000 OA
DOCKED: BRANCH  19  21
DOCKED: ATOM     22  O   UNL     1      38.455  15.675 121.232 -0.22 -0.00    +0.000 OA
DOCKED: ATOM     23  C   UNL     1      37.809  16.062 122.244 -0.27 -0.00    +0.000 C 
DOCKED: ATOM     24  N   UNL     1      37.039  15.134 123.021 -0.37 -0.00    +0.000 N 
DOCKED: ATOM     25  H   UNL     1      36.457  15.497 123.728 -0.02 -0.00    +0.000 HD
DOCKED: BRANCH  22  24
DOCKED: ATOM     26  C   UNL     1      37.062  13.709 122.838 -0.47 -0.00    +0.000 A 
DOCKED: ATOM     27  C   UNL     1      37.431  13.181 121.592 -0.43 -0.00    +0.000 A 
DOCKED: ATOM     28  C   UNL     1      37.437  11.801 121.378 -0.39 -0.00    +0.000 A 
DOCKED: ATOM     29  C   UNL     1      37.050  10.918 122.403 -0.49 -0.00    +0.000 A 
DOCKED: ATOM     30  C   UNL     1      36.674  11.450 123.650 -0.61 -0.00    +0.000 A 
DOCKED: ATOM     31  C   UNL     1      36.670  12.831 123.861 -0.48 -0.00    +0.000 A 
DOCKED: ATOM     32  CM  UNL     1      37.054  12.314 122.621 +0.00 -0.00    +0.000 AC
DOCKED: BRANCH  27  30
DOCKED: ATOM     33  C   UNL     1      37.047   9.448 122.195 -0.62 -0.00    +0.000 C 
DOCKED: ATOM     34  N   UNL     1      37.150   8.537 123.295 -0.67 -0.00    +0.000 N 
DOCKED: ATOM     35  O   UNL     1      37.041   7.205 123.087 -2.17 -0.00    +0.000 OA
DOCKED: ATOM     36  O   UNL     1      36.967   8.986 121.023 -2.69 -0.00    +0.000 OA
DOCKED: ATOM     37  H   UNL     1      37.300   8.882 124.204 -0.58 -0.00    +0.000 HD
DOCKED: ENDBRANCH  27  30
DOCKED: ENDBRANCH  22  24
DOCKED: ENDBRANCH  19  21
DOCKED: ENDBRANCH   1  19
DOCKED: TORSDOF 9DOCKED: TER
DOCKED: ENDMDL
________________________________________________________________________________


	BEGINNING GENETIC ALGORITHM DOCKING 69 of 100
Run: 69 Seed: 1521557538 419054389 [ Run 69 of 100 GA/GALS ]
Beginning LAMARCKIAN GENETIC ALGORITHM (LGA), with a maximum of 2500000 energy evaluations.

Final-Value: -16.406


	FINAL GENETIC ALGORITHM DOCKED STATE
	_______________________________________________


Detailed state:  trans 33.034 17.428 124.162 quatxyzw -0.771399 0.217405 0.534952 0.267405 center 1.619 0.086 0.013 ntor 9 153.4570 -71.9003 -165.3519 174.9426 157.3064 -117.3758 146.2424 54.4497 93.3996
State:	 33.034  17.428 124.162  -0.801  0.226  0.555 148.980    153.46  -71.90 -165.35  174.94  157.31 -117.38  146.24   54.45   93.40

DOCKED: MODEL       69
DOCKED: USER    Run = 69
DOCKED: USER    DPF = ligand_dock.biased.dpf
DOCKED: USER  
DOCKED: USER    Estimated Free Energy of Binding    =  -12.18 kcal/mol  [=(1)+(2)+(3)-(4)]
DOCKED: USER    Estimated Inhibition Constant, Ki   =    1.18 nM (nanomolar)  [Temperature = 298.15 K]
DOCKED: USER    
DOCKED: USER    (1) Final Intermolecular Energy     =  -14.86 kcal/mol
DOCKED: USER        vdW + Hbond + desolv Energy     =  -14.86 kcal/mol
DOCKED: USER        Electrostatic Energy            =   +0.00 kcal/mol
DOCKED: USER    (2) Final Total Internal Energy     =   -1.54 kcal/mol
DOCKED: USER    (3) Torsional Free Energy           =   +2.68 kcal/mol
DOCKED: USER    (4) Unbound System's Energy  [=(2)] =   -1.54 kcal/mol
DOCKED: USER    
DOCKED: USER    
DOCKED: USER    NEWDPF move ligand.dum.pdbqt
DOCKED: USER    NEWDPF about 1.619000 0.086000 0.013000
DOCKED: USER    NEWDPF tran0 33.033928 17.428164 124.162238
DOCKED: USER    NEWDPF quaternion0 -0.771399 0.217405 0.534952 0.267405
DOCKED: USER    NEWDPF axisangle0 -0.800552 0.225621 0.555169 148.980223
DOCKED: USER    NEWDPF quat0 -0.800552 0.225621 0.555169 148.980223
DOCKED: USER    NEWDPF dihe0 153.46 -71.90 -165.35 174.94 157.31 -117.38 146.24 54.45 93.40 
DOCKED: USER  keepresnum = 1 
DOCKED: USER  
DOCKED: REMARK  Name = 
DOCKED: REMARK  11 active torsions:
DOCKED: REMARK  status: ('A' for Active; 'I' for Inactive)
DOCKED: REMARK    1  A    between atoms: C_2  and  O_3
DOCKED: REMARK    2  A    between atoms: O_3  and  C_4
DOCKED: REMARK    3  A    between atoms: C_4  and  C_5
DOCKED: REMARK    4  A    between atoms: C_10  and  C_11
DOCKED: REMARK    5  A    between atoms: C_11  and  N_12
DOCKED: REMARK    6  A    between atoms: N_12  and  C_13
DOCKED: REMARK    7  A    between atoms: N_12  and  C_15
DOCKED: REMARK    8  A    between atoms: C_13  and  C_14
DOCKED: REMARK    9  A    between atoms: C_15  and  C_16
DOCKED: REMARK   10  A    between atoms: N_21  and  C_22
DOCKED: REMARK   11  A    between atoms: C_25  and  C_26
DOCKED: REMARK                            x       y       z     vdW  Elec       q    Type
DOCKED: REMARK                         _______ _______ _______ _____ _____    ______ ____
DOCKED: USER                              x       y       z     vdW  Elec       q    Type
DOCKED: USER                           _______ _______ _______ _____ _____    ______ ____
DOCKED: ROOT
DOCKED: ATOM      1  C   UNL     1      35.378  17.876 124.366 -0.32 -0.00    +0.000 C 
DOCKED: ENDROOT
DOCKED: BRANCH   1   2
DOCKED: ATOM      2  C   UNL     1      34.704  18.703 125.423 -0.26 -0.00    +0.000 A 
DOCKED: ATOM      3  C   UNL     1      35.298  19.884 125.893 -0.15 -0.00    +0.000 A 
DOCKED: ATOM      4  C   UNL     1      34.675  20.641 126.890 -0.11 -0.00    +0.000 A 
DOCKED: ATOM      5  C   UNL     1      33.457  20.218 127.441 -0.12 -0.00    +0.000 A 
DOCKED: ATOM      6  C   UNL     1      32.829  20.966 128.448 -0.06 -0.00    +0.000 A 
DOCKED: ATOM      7  C   UNL     1      31.627  20.521 129.022 -0.08 -0.00    +0.000 A 
DOCKED: ATOM      8  C   UNL     1      31.033  19.340 128.548 -0.20 -0.00    +0.000 A 
DOCKED: ATOM      9  C   UNL     1      31.647  18.593 127.538 -0.11 -0.00    +0.000 A 
DOCKED: ATOM     10  C   UNL     1      32.861  19.020 126.982 -0.23 -0.00    +0.000 A 
DOCKED: ATOM     11  C   UNL     1      33.488  18.271 125.975 -0.30 -0.00    +0.000 A 
DOCKED: ATOM     12  CM  UNL     1      34.081  19.457 126.434 -0.01 -0.00    +0.000 AC
DOCKED: ATOM     13  CM  UNL     1      32.242  19.776 127.997 +0.00 -0.00    +0.000 AC
DOCKED: BRANCH   7  12
DOCKED: ATOM     14  C   UNL     1      30.953  21.337 130.096 -0.10 -0.00    +0.000 C 
DOCKED: BRANCH  12  13
DOCKED: ATOM     15  N   UNL     1      29.749  22.015 129.569 -0.16 -0.00    +0.000 N 
DOCKED: ATOM     16  H   UNL     1      29.805  22.930 130.018 +0.00 -0.00    +0.000 HD
DOCKED: BRANCH  13  15
DOCKED: ATOM     17  C   UNL     1      29.800  22.308 128.121 -0.20 -0.00    +0.000 C 
DOCKED: ATOM     18  C   UNL     1      29.347  23.726 127.764 -0.18 -0.00    +0.000 C 
DOCKED: ENDBRANCH  13  15
DOCKED: BRANCH  13  17
DOCKED: ATOM     19  C   UNL     1      28.436  21.534 130.070 -0.38 -0.00    +0.000 C 
DOCKED: ATOM     20  C   UNL     1      27.551  20.857 129.014 -0.59 -0.00    +0.000 C 
DOCKED: ENDBRANCH  13  17
DOCKED: ENDBRANCH  12  13
DOCKED: ENDBRANCH   7  12
DOCKED: ENDBRANCH   1   2
DOCKED: BRANCH   1  19
DOCKED: ATOM     21  O   UNL     1      34.409  17.055 123.724 -0.46 -0.00    +0.000 OA
DOCKED: BRANCH  19  21
DOCKED: ATOM     22  O   UNL     1      33.550  14.917 123.607 -0.61 -0.00    +0.000 OA
DOCKED: ATOM     23  C   UNL     1      34.561  15.672 123.586 -0.53 -0.00    +0.000 C 
DOCKED: ATOM     24  N   UNL     1      35.881  15.125 123.468 -0.46 -0.00    +0.000 N 
DOCKED: ATOM     25  H   UNL     1      36.645  15.738 123.576 -0.02 -0.00    +0.000 HD
DOCKED: BRANCH  22  24
DOCKED: ATOM     26  C   UNL     1      36.165  13.741 123.202 -0.46 -0.00    +0.000 A 
DOCKED: ATOM     27  C   UNL     1      36.446  13.337 121.889 -0.05 -0.00    +0.000 A 
DOCKED: ATOM     28  C   UNL     1      36.700  11.994 121.597 -0.50 -0.00    +0.000 A 
DOCKED: ATOM     29  C   UNL     1      36.654  11.022 122.613 -0.59 -0.00    +0.000 A 
DOCKED: ATOM     30  C   UNL     1      36.365  11.429 123.928 -0.54 -0.00    +0.000 A 
DOCKED: ATOM     31  C   UNL     1      36.113  12.773 124.218 -0.30 -0.00    +0.000 A 
DOCKED: ATOM     32  CM  UNL     1      36.407  12.382 122.908 +0.00 -0.00    +0.000 AC
DOCKED: BRANCH  27  30
DOCKED: ATOM     33  C   UNL     1      36.918   9.590 122.323 -0.64 -0.00    +0.000 C 
DOCKED: ATOM     34  N   UNL     1      37.034   8.624 123.373 -0.67 -0.00    +0.000 N 
DOCKED: ATOM     35  O   UNL     1      37.171   7.311 123.078 -2.22 -0.00    +0.000 OA
DOCKED: ATOM     36  O   UNL     1      37.058   9.214 121.127 -2.74 -0.00    +0.000 OA
DOCKED: ATOM     37  H   UNL     1      37.014   8.916 124.313 -0.52 -0.00    +0.000 HD
DOCKED: ENDBRANCH  27  30
DOCKED: ENDBRANCH  22  24
DOCKED: ENDBRANCH  19  21
DOCKED: ENDBRANCH   1  19
DOCKED: TORSDOF 9DOCKED: TER
DOCKED: ENDMDL
________________________________________________________________________________


	BEGINNING GENETIC ALGORITHM DOCKING 70 of 100
Run: 70 Seed: 671625489 1060220517 [ Run 70 of 100 GA/GALS ]
Beginning LAMARCKIAN GENETIC ALGORITHM (LGA), with a maximum of 2500000 energy evaluations.

Final-Value: -17.758


	FINAL GENETIC ALGORITHM DOCKED STATE
	_______________________________________________


Detailed state:  trans 37.136 16.991 125.256 quatxyzw 0.315168 0.255788 -0.247425 -0.879785 center 1.619 0.086 0.013 ntor 9 154.8643 -177.3132 175.1492 69.2284 122.7678 93.7132 117.6876 -62.2134 14.9018
State:	 37.136  16.991 125.256   0.663  0.538 -0.520 -56.767    154.86 -177.31  175.15   69.23  122.77   93.71  117.69  -62.21   14.90

DOCKED: MODEL       70
DOCKED: USER    Run = 70
DOCKED: USER    DPF = ligand_dock.biased.dpf
DOCKED: USER  
DOCKED: USER    Estimated Free Energy of Binding    =  -13.55 kcal/mol  [=(1)+(2)+(3)-(4)]
DOCKED: USER    Estimated Inhibition Constant, Ki   =  117.59 pM (picomolar)  [Temperature = 298.15 K]
DOCKED: USER    
DOCKED: USER    (1) Final Intermolecular Energy     =  -16.23 kcal/mol
DOCKED: USER        vdW + Hbond + desolv Energy     =  -16.23 kcal/mol
DOCKED: USER        Electrostatic Energy            =   +0.00 kcal/mol
DOCKED: USER    (2) Final Total Internal Energy     =   -1.53 kcal/mol
DOCKED: USER    (3) Torsional Free Energy           =   +2.68 kcal/mol
DOCKED: USER    (4) Unbound System's Energy  [=(2)] =   -1.53 kcal/mol
DOCKED: USER    
DOCKED: USER    
DOCKED: USER    NEWDPF move ligand.dum.pdbqt
DOCKED: USER    NEWDPF about 1.619000 0.086000 0.013000
DOCKED: USER    NEWDPF tran0 37.135610 16.991497 125.256380
DOCKED: USER    NEWDPF quaternion0 0.315168 0.255788 -0.247425 -0.879785
DOCKED: USER    NEWDPF axisangle0 0.662994 0.538081 -0.520489 -56.767086
DOCKED: USER    NEWDPF quat0 0.662994 0.538081 -0.520489 -56.767086
DOCKED: USER    NEWDPF dihe0 154.86 -177.31 175.15 69.23 122.77 93.71 117.69 -62.21 14.90 
DOCKED: USER  keepresnum = 1 
DOCKED: USER  
DOCKED: REMARK  Name = 
DOCKED: REMARK  11 active torsions:
DOCKED: REMARK  status: ('A' for Active; 'I' for Inactive)
DOCKED: REMARK    1  A    between atoms: C_2  and  O_3
DOCKED: REMARK    2  A    between atoms: O_3  and  C_4
DOCKED: REMARK    3  A    between atoms: C_4  and  C_5
DOCKED: REMARK    4  A    between atoms: C_10  and  C_11
DOCKED: REMARK    5  A    between atoms: C_11  and  N_12
DOCKED: REMARK    6  A    between atoms: N_12  and  C_13
DOCKED: REMARK    7  A    between atoms: N_12  and  C_15
DOCKED: REMARK    8  A    between atoms: C_13  and  C_14
DOCKED: REMARK    9  A    between atoms: C_15  and  C_16
DOCKED: REMARK   10  A    between atoms: N_21  and  C_22
DOCKED: REMARK   11  A    between atoms: C_25  and  C_26
DOCKED: REMARK                            x       y       z     vdW  Elec       q    Type
DOCKED: REMARK                         _______ _______ _______ _____ _____    ______ ____
DOCKED: USER                              x       y       z     vdW  Elec       q    Type
DOCKED: USER                           _______ _______ _______ _____ _____    ______ ____
DOCKED: ROOT
DOCKED: ATOM      1  C   UNL     1      36.518  18.270 123.327 -0.21 -0.00    +0.000 C 
DOCKED: ENDROOT
DOCKED: BRANCH   1   2
DOCKED: ATOM      2  C   UNL     1      35.512  18.610 124.389 -0.23 -0.00    +0.000 A 
DOCKED: ATOM      3  C   UNL     1      35.247  19.946 124.720 -0.13 -0.00    +0.000 A 
DOCKED: ATOM      4  C   UNL     1      34.323  20.258 125.722 -0.16 -0.00    +0.000 A 
DOCKED: ATOM      5  C   UNL     1      33.662  19.233 126.416 -0.23 -0.00    +0.000 A 
DOCKED: ATOM      6  C   UNL     1      32.740  19.536 127.430 -0.18 -0.00    +0.000 A 
DOCKED: ATOM      7  C   UNL     1      32.107  18.507 128.146 -0.21 -0.00    +0.000 A 
DOCKED: ATOM      8  C   UNL     1      32.372  17.169 127.811 -0.32 -0.00    +0.000 A 
DOCKED: ATOM      9  C   UNL     1      33.283  16.859 126.797 -0.36 -0.00    +0.000 A 
DOCKED: ATOM     10  C   UNL     1      33.937  17.883 126.097 -0.33 -0.00    +0.000 A 
DOCKED: ATOM     11  C   UNL     1      34.859  17.580 125.084 -0.33 -0.00    +0.000 A 
DOCKED: ATOM     12  CM  UNL     1      34.590  18.919 125.405 -0.17 -0.00    +0.000 AC
DOCKED: ATOM     13  CM  UNL     1      33.017  18.198 127.117 +0.00 -0.00    +0.000 AC
DOCKED: BRANCH   7  12
DOCKED: ATOM     14  C   UNL     1      31.109  18.840 129.226 -0.25 -0.00    +0.000 C 
DOCKED: BRANCH  12  13
DOCKED: ATOM     15  N   UNL     1      29.851  19.356 128.644 -0.32 -0.00    +0.000 N 
DOCKED: ATOM     16  H   UNL     1      29.183  18.627 128.896 -0.03 -0.00    +0.000 HD
DOCKED: BRANCH  13  15
DOCKED: ATOM     17  C   UNL     1      29.333  20.576 129.300 -0.31 -0.00    +0.000 C 
DOCKED: ATOM     18  C   UNL     1      27.838  20.514 129.621 -0.48 -0.00    +0.000 C 
DOCKED: ENDBRANCH  13  15
DOCKED: BRANCH  13  17
DOCKED: ATOM     19  C   UNL     1      29.741  19.341 127.163 -0.44 -0.00    +0.000 C 
DOCKED: ATOM     20  C   UNL     1      28.356  18.962 126.622 -0.61 -0.00    +0.000 C 
DOCKED: ENDBRANCH  13  17
DOCKED: ENDBRANCH  12  13
DOCKED: ENDBRANCH   7  12
DOCKED: ENDBRANCH   1   2
DOCKED: BRANCH   1  19
DOCKED: ATOM     21  O   UNL     1      37.519  17.424 123.882 -0.26 -0.00    +0.000 OA
DOCKED: BRANCH  19  21
DOCKED: ATOM     22  O   UNL     1      38.822  15.763 122.951 -0.34 -0.00    +0.000 OA
DOCKED: ATOM     23  C   UNL     1      37.718  16.107 123.457 -0.31 -0.00    +0.000 C 
DOCKED: ATOM     24  N   UNL     1      36.636  15.171 123.562 -0.41 -0.00    +0.000 N 
DOCKED: ATOM     25  H   UNL     1      35.759  15.512 123.851 -0.02 -0.00    +0.000 HD
DOCKED: BRANCH  22  24
DOCKED: ATOM     26  C   UNL     1      36.748  13.767 123.273 -0.49 -0.00    +0.000 A 
DOCKED: ATOM     27  C   UNL     1      37.306  13.357 122.054 -0.44 -0.00    +0.000 A 
DOCKED: ATOM     28  C   UNL     1      37.403  12.000 121.737 -0.40 -0.00    +0.000 A 
DOCKED: ATOM     29  C   UNL     1      36.921  11.022 122.627 -0.54 -0.00    +0.000 A 
DOCKED: ATOM     30  C   UNL     1      36.356  11.436 123.847 -0.59 -0.00    +0.000 A 
DOCKED: ATOM     31  C   UNL     1      36.261  12.795 124.162 -0.35 -0.00    +0.000 A 
DOCKED: ATOM     32  CM  UNL     1      36.832  12.396 122.950 +0.00 -0.00    +0.000 AC
DOCKED: BRANCH  27  30
DOCKED: ATOM     33  C   UNL     1      37.012   9.576 122.307 -0.62 -0.00    +0.000 C 
DOCKED: ATOM     34  N   UNL     1      37.083   8.585 123.339 -0.68 -0.00    +0.000 N 
DOCKED: ATOM     35  O   UNL     1      37.061   7.270 123.022 -2.20 -0.00    +0.000 OA
DOCKED: ATOM     36  O   UNL     1      37.042   9.207 121.101 -2.73 -0.00    +0.000 OA
DOCKED: ATOM     37  H   UNL     1      37.148   8.863 124.281 -0.56 -0.00    +0.000 HD
DOCKED: ENDBRANCH  27  30
DOCKED: ENDBRANCH  22  24
DOCKED: ENDBRANCH  19  21
DOCKED: ENDBRANCH   1  19
DOCKED: TORSDOF 9DOCKED: TER
DOCKED: ENDMDL
________________________________________________________________________________


	BEGINNING GENETIC ALGORITHM DOCKING 71 of 100
Run: 71 Seed: 1571988641 35279683 [ Run 71 of 100 GA/GALS ]
Beginning LAMARCKIAN GENETIC ALGORITHM (LGA), with a maximum of 2500000 energy evaluations.

Final-Value: -16.655


	FINAL GENETIC ALGORITHM DOCKED STATE
	_______________________________________________


Detailed state:  trans 36.587 16.994 124.830 quatxyzw 0.507914 0.259838 -0.794115 -0.209495 center 1.619 0.086 0.013 ntor 9 -175.2834 -72.4343 -180.0000 108.3221 -68.5657 61.2207 5.3312 104.2771 -176.5218
State:	 36.587  16.994 124.830   0.519  0.266 -0.812 -155.814   -175.28  -72.43 -180.00  108.32  -68.57   61.22    5.33  104.28 -176.52

DOCKED: MODEL       71
DOCKED: USER    Run = 71
DOCKED: USER    DPF = ligand_dock.biased.dpf
DOCKED: USER  
DOCKED: USER    Estimated Free Energy of Binding    =  -12.32 kcal/mol  [=(1)+(2)+(3)-(4)]
DOCKED: USER    Estimated Inhibition Constant, Ki   =  930.41 pM (picomolar)  [Temperature = 298.15 K]
DOCKED: USER    
DOCKED: USER    (1) Final Intermolecular Energy     =  -15.01 kcal/mol
DOCKED: USER        vdW + Hbond + desolv Energy     =  -15.01 kcal/mol
DOCKED: USER        Electrostatic Energy            =   +0.00 kcal/mol
DOCKED: USER    (2) Final Total Internal Energy     =   -1.65 kcal/mol
DOCKED: USER    (3) Torsional Free Energy           =   +2.68 kcal/mol
DOCKED: USER    (4) Unbound System's Energy  [=(2)] =   -1.65 kcal/mol
DOCKED: USER    
DOCKED: USER    
DOCKED: USER    NEWDPF move ligand.dum.pdbqt
DOCKED: USER    NEWDPF about 1.619000 0.086000 0.013000
DOCKED: USER    NEWDPF tran0 36.587375 16.994446 124.829667
DOCKED: USER    NEWDPF quaternion0 0.507914 0.259838 -0.794115 -0.209495
DOCKED: USER    NEWDPF axisangle0 0.519440 0.265735 -0.812137 -155.814473
DOCKED: USER    NEWDPF quat0 0.519440 0.265735 -0.812137 -155.814473
DOCKED: USER    NEWDPF dihe0 -175.28 -72.43 -180.00 108.32 -68.57 61.22 5.33 104.28 -176.52 
DOCKED: USER  keepresnum = 1 
DOCKED: USER  
DOCKED: REMARK  Name = 
DOCKED: REMARK  11 active torsions:
DOCKED: REMARK  status: ('A' for Active; 'I' for Inactive)
DOCKED: REMARK    1  A    between atoms: C_2  and  O_3
DOCKED: REMARK    2  A    between atoms: O_3  and  C_4
DOCKED: REMARK    3  A    between atoms: C_4  and  C_5
DOCKED: REMARK    4  A    between atoms: C_10  and  C_11
DOCKED: REMARK    5  A    between atoms: C_11  and  N_12
DOCKED: REMARK    6  A    between atoms: N_12  and  C_13
DOCKED: REMARK    7  A    between atoms: N_12  and  C_15
DOCKED: REMARK    8  A    between atoms: C_13  and  C_14
DOCKED: REMARK    9  A    between atoms: C_15  and  C_16
DOCKED: REMARK   10  A    between atoms: N_21  and  C_22
DOCKED: REMARK   11  A    between atoms: C_25  and  C_26
DOCKED: REMARK                            x       y       z     vdW  Elec       q    Type
DOCKED: REMARK                         _______ _______ _______ _____ _____    ______ ____
DOCKED: USER                              x       y       z     vdW  Elec       q    Type
DOCKED: USER                           _______ _______ _______ _____ _____    ______ ____
DOCKED: ROOT
DOCKED: ATOM      1  C   UNL     1      37.888  18.691 123.748 -0.15 -0.00    +0.000 C 
DOCKED: ENDROOT
DOCKED: BRANCH   1   2
DOCKED: ATOM      2  C   UNL     1      38.399  18.611 125.158 -0.17 -0.00    +0.000 A 
DOCKED: ATOM      3  C   UNL     1      37.565  18.931 126.240 -0.13 -0.00    +0.000 A 
DOCKED: ATOM      4  C   UNL     1      38.051  18.873 127.550 -0.11 -0.00    +0.000 A 
DOCKED: ATOM      5  C   UNL     1      39.383  18.508 127.793 -0.21 -0.00    +0.000 A 
DOCKED: ATOM      6  C   UNL     1      39.881  18.456 129.104 -0.24 -0.00    +0.000 A 
DOCKED: ATOM      7  C   UNL     1      41.225  18.123 129.342 -0.35 -0.00    +0.000 A 
DOCKED: ATOM      8  C   UNL     1      42.058  17.800 128.258 -0.45 -0.00    +0.000 A 
DOCKED: ATOM      9  C   UNL     1      41.567  17.842 126.949 -0.28 -0.00    +0.000 A 
DOCKED: ATOM     10  C   UNL     1      40.233  18.198 126.706 -0.31 -0.00    +0.000 A 
DOCKED: ATOM     11  C   UNL     1      39.735  18.251 125.395 -0.24 -0.00    +0.000 A 
DOCKED: ATOM     12  CM  UNL     1      38.894  18.562 126.474 +0.00 -0.00    +0.000 AC
DOCKED: ATOM     13  CM  UNL     1      40.725  18.155 128.025 +0.00 -0.00    +0.000 AC
DOCKED: BRANCH   7  12
DOCKED: ATOM     14  C   UNL     1      41.750  18.059 130.753 -0.28 -0.00    +0.000 C 
DOCKED: BRANCH  12  13
DOCKED: ATOM     15  N   UNL     1      42.849  19.029 130.955 -0.17 -0.00    +0.000 N 
DOCKED: ATOM     16  H   UNL     1      42.791  19.213 131.957 +0.00 -0.00    +0.000 HD
DOCKED: BRANCH  13  15
DOCKED: ATOM     17  C   UNL     1      44.202  18.466 130.759 -0.32 -0.00    +0.000 C 
DOCKED: ATOM     18  C   UNL     1      44.945  18.180 132.066 -0.26 -0.00    +0.000 C 
DOCKED: ENDBRANCH  13  15
DOCKED: BRANCH  13  17
DOCKED: ATOM     19  C   UNL     1      42.648  20.394 130.404 -0.10 -0.00    +0.000 C 
DOCKED: ATOM     20  C   UNL     1      43.596  20.773 129.258 -0.13 -0.00    +0.000 C 
DOCKED: ENDBRANCH  13  17
DOCKED: ENDBRANCH  12  13
DOCKED: ENDBRANCH   7  12
DOCKED: ENDBRANCH   1   2
DOCKED: BRANCH   1  19
DOCKED: ATOM     21  O   UNL     1      36.921  17.667 123.541 -0.22 -0.00    +0.000 OA
DOCKED: BRANCH  19  21
DOCKED: ATOM     22  O   UNL     1      38.471  15.963 123.423 -0.34 -0.00    +0.000 OA
DOCKED: ATOM     23  C   UNL     1      37.268  16.330 123.325 -0.31 -0.00    +0.000 C 
DOCKED: ATOM     24  N   UNL     1      36.246  15.398 122.944 -0.36 -0.00    +0.000 N 
DOCKED: ATOM     25  H   UNL     1      35.345  15.752 122.763 -0.02 -0.00    +0.000 HD
DOCKED: BRANCH  22  24
DOCKED: ATOM     26  C   UNL     1      36.450  13.982 122.810 -0.41 -0.00    +0.000 A 
DOCKED: ATOM     27  C   UNL     1      36.969  13.472 121.611 -0.35 -0.00    +0.000 A 
DOCKED: ATOM     28  C   UNL     1      37.152  12.097 121.444 -0.48 -0.00    +0.000 A 
DOCKED: ATOM     29  C   UNL     1      36.798  11.199 122.468 -0.56 -0.00    +0.000 A 
DOCKED: ATOM     30  C   UNL     1      36.271  11.713 123.667 -0.62 -0.00    +0.000 A 
DOCKED: ATOM     31  C   UNL     1      36.089  13.089 123.832 -0.53 -0.00    +0.000 A 
DOCKED: ATOM     32  CM  UNL     1      36.621  12.592 122.639 +0.00 -0.00    +0.000 AC
DOCKED: BRANCH  27  30
DOCKED: ATOM     33  C   UNL     1      36.982   9.735 122.309 -0.61 -0.00    +0.000 C 
DOCKED: ATOM     34  N   UNL     1      37.084   8.867 123.443 -0.61 -0.00    +0.000 N 
DOCKED: ATOM     35  O   UNL     1      37.148   7.527 123.270 -2.45 -0.00    +0.000 OA
DOCKED: ATOM     36  O   UNL     1      37.066   9.242 121.151 -2.72 -0.00    +0.000 OA
DOCKED: ATOM     37  H   UNL     1      37.108   9.247 124.350 -0.52 -0.00    +0.000 HD
DOCKED: ENDBRANCH  27  30
DOCKED: ENDBRANCH  22  24
DOCKED: ENDBRANCH  19  21
DOCKED: ENDBRANCH   1  19
DOCKED: TORSDOF 9DOCKED: TER
DOCKED: ENDMDL
________________________________________________________________________________


	BEGINNING GENETIC ALGORITHM DOCKING 72 of 100
Run: 72 Seed: 1729184694 1418102680 [ Run 72 of 100 GA/GALS ]
Beginning LAMARCKIAN GENETIC ALGORITHM (LGA), with a maximum of 2500000 energy evaluations.

Final-Value: -17.813


	FINAL GENETIC ALGORITHM DOCKED STATE
	_______________________________________________


Detailed state:  trans 37.014 16.347 121.940 quatxyzw 0.526594 0.475230 -0.188000 -0.679346 center 1.619 0.086 0.013 ntor 9 -36.6351 20.8814 178.7365 -82.9843 -73.0155 173.4983 90.0232 -127.4515 179.8259
State:	 37.014  16.347 121.940   0.718  0.648 -0.256 -94.415    -36.64   20.88  178.74  -82.98  -73.02  173.50   90.02 -127.45  179.83

DOCKED: MODEL       72
DOCKED: USER    Run = 72
DOCKED: USER    DPF = ligand_dock.biased.dpf
DOCKED: USER  
DOCKED: USER    Estimated Free Energy of Binding    =  -13.38 kcal/mol  [=(1)+(2)+(3)-(4)]
DOCKED: USER    Estimated Inhibition Constant, Ki   =  155.98 pM (picomolar)  [Temperature = 298.15 K]
DOCKED: USER    
DOCKED: USER    (1) Final Intermolecular Energy     =  -16.06 kcal/mol
DOCKED: USER        vdW + Hbond + desolv Energy     =  -16.06 kcal/mol
DOCKED: USER        Electrostatic Energy            =   +0.00 kcal/mol
DOCKED: USER    (2) Final Total Internal Energy     =   -1.75 kcal/mol
DOCKED: USER    (3) Torsional Free Energy           =   +2.68 kcal/mol
DOCKED: USER    (4) Unbound System's Energy  [=(2)] =   -1.75 kcal/mol
DOCKED: USER    
DOCKED: USER    
DOCKED: USER    NEWDPF move ligand.dum.pdbqt
DOCKED: USER    NEWDPF about 1.619000 0.086000 0.013000
DOCKED: USER    NEWDPF tran0 37.014256 16.346715 121.940361
DOCKED: USER    NEWDPF quaternion0 0.526594 0.475230 -0.188000 -0.679346
DOCKED: USER    NEWDPF axisangle0 0.717609 0.647613 -0.256194 -94.414846
DOCKED: USER    NEWDPF quat0 0.717609 0.647613 -0.256194 -94.414846
DOCKED: USER    NEWDPF dihe0 -36.64 20.88 178.74 -82.98 -73.02 173.50 90.02 -127.45 179.83 
DOCKED: USER  keepresnum = 1 
DOCKED: USER  
DOCKED: REMARK  Name = 
DOCKED: REMARK  11 active torsions:
DOCKED: REMARK  status: ('A' for Active; 'I' for Inactive)
DOCKED: REMARK    1  A    between atoms: C_2  and  O_3
DOCKED: REMARK    2  A    between atoms: O_3  and  C_4
DOCKED: REMARK    3  A    between atoms: C_4  and  C_5
DOCKED: REMARK    4  A    between atoms: C_10  and  C_11
DOCKED: REMARK    5  A    between atoms: C_11  and  N_12
DOCKED: REMARK    6  A    between atoms: N_12  and  C_13
DOCKED: REMARK    7  A    between atoms: N_12  and  C_15
DOCKED: REMARK    8  A    between atoms: C_13  and  C_14
DOCKED: REMARK    9  A    between atoms: C_15  and  C_16
DOCKED: REMARK   10  A    between atoms: N_21  and  C_22
DOCKED: REMARK   11  A    between atoms: C_25  and  C_26
DOCKED: REMARK                            x       y       z     vdW  Elec       q    Type
DOCKED: REMARK                         _______ _______ _______ _____ _____    ______ ____
DOCKED: USER                              x       y       z     vdW  Elec       q    Type
DOCKED: USER                           _______ _______ _______ _____ _____    ______ ____
DOCKED: ROOT
DOCKED: ATOM      1  C   UNL     1      35.889  18.410 121.478 -0.23 -0.00    +0.000 C 
DOCKED: ENDROOT
DOCKED: BRANCH   1   2
DOCKED: ATOM      2  C   UNL     1      35.325  17.912 122.778 -0.28 -0.00    +0.000 A 
DOCKED: ATOM      3  C   UNL     1      34.547  16.745 122.819 -0.36 -0.00    +0.000 A 
DOCKED: ATOM      4  C   UNL     1      34.010  16.295 124.029 -0.33 -0.00    +0.000 A 
DOCKED: ATOM      5  C   UNL     1      34.232  17.015 125.211 -0.40 -0.00    +0.000 A 
DOCKED: ATOM      6  C   UNL     1      33.688  16.576 126.428 -0.38 -0.00    +0.000 A 
DOCKED: ATOM      7  C   UNL     1      33.883  17.318 127.604 -0.27 -0.00    +0.000 A 
DOCKED: ATOM      8  C   UNL     1      34.665  18.484 127.562 -0.16 -0.00    +0.000 A 
DOCKED: ATOM      9  C   UNL     1      35.217  18.925 126.355 -0.18 -0.00    +0.000 A 
DOCKED: ATOM     10  C   UNL     1      35.002  18.201 125.174 -0.28 -0.00    +0.000 A 
DOCKED: ATOM     11  C   UNL     1      35.545  18.641 123.957 -0.23 -0.00    +0.000 A 
DOCKED: ATOM     12  CM  UNL     1      34.777  17.467 123.994 -0.22 -0.00    +0.000 AC
DOCKED: ATOM     13  CM  UNL     1      34.448  17.753 126.389 -0.12 -0.00    +0.000 AC
DOCKED: BRANCH   7  12
DOCKED: ATOM     14  C   UNL     1      33.306  16.834 128.910 -0.35 -0.00    +0.000 C 
DOCKED: BRANCH  12  13
DOCKED: ATOM     15  N   UNL     1      32.437  17.864 129.520 -0.20 -0.00    +0.000 N 
DOCKED: ATOM     16  H   UNL     1      32.939  18.725 129.300 +0.01 -0.00    +0.000 HD
DOCKED: BRANCH  13  15
DOCKED: ATOM     17  C   UNL     1      31.124  18.022 128.859 -0.35 -0.00    +0.000 C 
DOCKED: ATOM     18  C   UNL     1      30.536  16.709 128.334 -0.47 -0.00    +0.000 C 
DOCKED: ENDBRANCH  13  15
DOCKED: BRANCH  13  17
DOCKED: ATOM     19  C   UNL     1      32.407  17.924 131.004 -0.19 -0.00    +0.000 C 
DOCKED: ATOM     20  C   UNL     1      32.865  16.641 131.710 -0.28 -0.00    +0.000 C 
DOCKED: ENDBRANCH  13  17
DOCKED: ENDBRANCH  12  13
DOCKED: ENDBRANCH   7  12
DOCKED: ENDBRANCH   1   2
DOCKED: BRANCH   1  19
DOCKED: ATOM     21  O   UNL     1      36.949  17.554 121.067 -0.14 -0.00    +0.000 OA
DOCKED: BRANCH  19  21
DOCKED: ATOM     22  O   UNL     1      36.439  15.609 119.936 -0.21 -0.00    +0.000 OA
DOCKED: ATOM     23  C   UNL     1      36.818  16.163 121.005 -0.21 -0.00    +0.000 C 
DOCKED: ATOM     24  N   UNL     1      37.074  15.386 122.182 -0.28 -0.00    +0.000 N 
DOCKED: ATOM     25  H   UNL     1      37.251  15.869 123.023 -0.01 -0.00    +0.000 HD
DOCKED: BRANCH  22  24
DOCKED: ATOM     26  C   UNL     1      37.092  13.949 122.218 -0.40 -0.00    +0.000 A 
DOCKED: ATOM     27  C   UNL     1      37.445  13.237 121.063 -0.42 -0.00    +0.000 A 
DOCKED: ATOM     28  C   UNL     1      37.445  11.840 121.061 -0.43 -0.00    +0.000 A 
DOCKED: ATOM     29  C   UNL     1      37.068  11.124 122.213 -0.48 -0.00    +0.000 A 
DOCKED: ATOM     30  C   UNL     1      36.707  11.841 123.368 -0.62 -0.00    +0.000 A 
DOCKED: ATOM     31  C   UNL     1      36.709  13.239 123.367 -0.54 -0.00    +0.000 A 
DOCKED: ATOM     32  CM  UNL     1      37.077  12.538 122.216 +0.00 -0.00    +0.000 AC
DOCKED: BRANCH  27  30
DOCKED: ATOM     33  C   UNL     1      37.059   9.640 122.231 -0.60 -0.00    +0.000 C 
DOCKED: ATOM     34  N   UNL     1      37.173   8.906 123.455 -0.57 -0.00    +0.000 N 
DOCKED: ATOM     35  O   UNL     1      37.059   7.559 123.454 -2.58 -0.00    +0.000 OA
DOCKED: ATOM     36  O   UNL     1      36.964   9.006 121.144 -2.69 -0.00    +0.000 OA
DOCKED: ATOM     37  H   UNL     1      37.336   9.385 124.300 -0.61 -0.00    +0.000 HD
DOCKED: ENDBRANCH  27  30
DOCKED: ENDBRANCH  22  24
DOCKED: ENDBRANCH  19  21
DOCKED: ENDBRANCH   1  19
DOCKED: TORSDOF 9DOCKED: TER
DOCKED: ENDMDL
________________________________________________________________________________


	BEGINNING GENETIC ALGORITHM DOCKING 73 of 100
Run: 73 Seed: 1142441624 744003143 [ Run 73 of 100 GA/GALS ]
Beginning LAMARCKIAN GENETIC ALGORITHM (LGA), with a maximum of 2500000 energy evaluations.

Final-Value: -17.461


	FINAL GENETIC ALGORITHM DOCKED STATE
	_______________________________________________


Detailed state:  trans 35.502 17.364 121.170 quatxyzw -0.809320 -0.015957 0.563680 0.164349 center 1.619 0.086 0.013 ntor 9 -7.8580 -146.9493 -179.8982 -37.8133 180.0000 -172.8952 -174.9708 107.2197 89.8465
State:	 35.502  17.364 121.170  -0.820 -0.016  0.571 161.081     -7.86 -146.95 -179.90  -37.81  180.00 -172.90 -174.97  107.22   89.85

DOCKED: MODEL       73
DOCKED: USER    Run = 73
DOCKED: USER    DPF = ligand_dock.biased.dpf
DOCKED: USER  
DOCKED: USER    Estimated Free Energy of Binding    =  -13.29 kcal/mol  [=(1)+(2)+(3)-(4)]
DOCKED: USER    Estimated Inhibition Constant, Ki   =  180.03 pM (picomolar)  [Temperature = 298.15 K]
DOCKED: USER    
DOCKED: USER    (1) Final Intermolecular Energy     =  -15.98 kcal/mol
DOCKED: USER        vdW + Hbond + desolv Energy     =  -15.98 kcal/mol
DOCKED: USER        Electrostatic Energy            =   +0.00 kcal/mol
DOCKED: USER    (2) Final Total Internal Energy     =   -1.48 kcal/mol
DOCKED: USER    (3) Torsional Free Energy           =   +2.68 kcal/mol
DOCKED: USER    (4) Unbound System's Energy  [=(2)] =   -1.48 kcal/mol
DOCKED: USER    
DOCKED: USER    
DOCKED: USER    NEWDPF move ligand.dum.pdbqt
DOCKED: USER    NEWDPF about 1.619000 0.086000 0.013000
DOCKED: USER    NEWDPF tran0 35.502433 17.363981 121.170480
DOCKED: USER    NEWDPF quaternion0 -0.809320 -0.015957 0.563680 0.164349
DOCKED: USER    NEWDPF axisangle0 -0.820477 -0.016177 0.571451 161.081205
DOCKED: USER    NEWDPF quat0 -0.820477 -0.016177 0.571451 161.081205
DOCKED: USER    NEWDPF dihe0 -7.86 -146.95 -179.90 -37.81 180.00 -172.90 -174.97 107.22 89.85 
DOCKED: USER  keepresnum = 1 
DOCKED: USER  
DOCKED: REMARK  Name = 
DOCKED: REMARK  11 active torsions:
DOCKED: REMARK  status: ('A' for Active; 'I' for Inactive)
DOCKED: REMARK    1  A    between atoms: C_2  and  O_3
DOCKED: REMARK    2  A    between atoms: O_3  and  C_4
DOCKED: REMARK    3  A    between atoms: C_4  and  C_5
DOCKED: REMARK    4  A    between atoms: C_10  and  C_11
DOCKED: REMARK    5  A    between atoms: C_11  and  N_12
DOCKED: REMARK    6  A    between atoms: N_12  and  C_13
DOCKED: REMARK    7  A    between atoms: N_12  and  C_15
DOCKED: REMARK    8  A    between atoms: C_13  and  C_14
DOCKED: REMARK    9  A    between atoms: C_15  and  C_16
DOCKED: REMARK   10  A    between atoms: N_21  and  C_22
DOCKED: REMARK   11  A    between atoms: C_25  and  C_26
DOCKED: REMARK                            x       y       z     vdW  Elec       q    Type
DOCKED: REMARK                         _______ _______ _______ _____ _____    ______ ____
DOCKED: USER                              x       y       z     vdW  Elec       q    Type
DOCKED: USER                           _______ _______ _______ _____ _____    ______ ____
DOCKED: ROOT
DOCKED: ATOM      1  C   UNL     1      37.692  18.281 121.490 -0.10 -0.00    +0.000 C 
DOCKED: ENDROOT
DOCKED: BRANCH   1   2
DOCKED: ATOM      2  C   UNL     1      37.001  18.386 122.819 -0.14 -0.00    +0.000 A 
DOCKED: ATOM      3  C   UNL     1      37.422  19.325 123.771 -0.11 -0.00    +0.000 A 
DOCKED: ATOM      4  C   UNL     1      36.786  19.407 125.014 -0.14 -0.00    +0.000 A 
DOCKED: ATOM      5  C   UNL     1      35.730  18.539 125.325 -0.21 -0.00    +0.000 A 
DOCKED: ATOM      6  C   UNL     1      35.093  18.607 126.574 -0.19 -0.00    +0.000 A 
DOCKED: ATOM      7  C   UNL     1      34.059  17.712 126.895 -0.29 -0.00    +0.000 A 
DOCKED: ATOM      8  C   UNL     1      33.636  16.775 125.939 -0.29 -0.00    +0.000 A 
DOCKED: ATOM      9  C   UNL     1      34.260  16.705 124.689 -0.43 -0.00    +0.000 A 
DOCKED: ATOM     10  C   UNL     1      35.311  17.579 124.375 -0.31 -0.00    +0.000 A 
DOCKED: ATOM     11  C   UNL     1      35.948  17.510 123.126 -0.25 -0.00    +0.000 A 
DOCKED: ATOM     12  CM  UNL     1      36.366  18.458 124.072 -0.04 -0.00    +0.000 AC
DOCKED: ATOM     13  CM  UNL     1      34.681  17.652 125.633 -0.36 -0.00    +0.000 AC
DOCKED: BRANCH   7  12
DOCKED: ATOM     14  C   UNL     1      33.371  17.799 128.234 -0.27 -0.00    +0.000 C 
DOCKED: BRANCH  12  13
DOCKED: ATOM     15  N   UNL     1      31.902  17.844 128.073 -0.30 -0.00    +0.000 N 
DOCKED: ATOM     16  H   UNL     1      31.790  17.673 127.073 -0.40 -0.00    +0.000 HD
DOCKED: BRANCH  13  15
DOCKED: ATOM     17  C   UNL     1      31.184  16.725 128.722 -0.49 -0.00    +0.000 C 
DOCKED: ATOM     18  C   UNL     1      31.319  16.710 130.247 -0.41 -0.00    +0.000 C 
DOCKED: ENDBRANCH  13  15
DOCKED: BRANCH  13  17
DOCKED: ATOM     19  C   UNL     1      31.252  19.173 128.208 -0.26 -0.00    +0.000 C 
DOCKED: ATOM     20  C   UNL     1      29.763  19.204 127.833 -0.43 -0.00    +0.000 C 
DOCKED: ENDBRANCH  13  17
DOCKED: ENDBRANCH  12  13
DOCKED: ENDBRANCH   7  12
DOCKED: ENDBRANCH   1   2
DOCKED: BRANCH   1  19
DOCKED: ATOM     21  O   UNL     1      36.853  17.580 120.578 -0.13 -0.00    +0.000 OA
DOCKED: BRANCH  19  21
DOCKED: ATOM     22  O   UNL     1      36.002  15.609 119.736 -0.08 -0.00    +0.000 OA
DOCKED: ATOM     23  C   UNL     1      36.665  16.196 120.634 -0.19 -0.00    +0.000 C 
DOCKED: ATOM     24  N   UNL     1      37.194  15.466 121.750 -0.25 -0.00    +0.000 N 
DOCKED: ATOM     25  H   UNL     1      37.599  15.980 122.485 +0.00 -0.00    +0.000 HD
DOCKED: BRANCH  22  24
DOCKED: ATOM     26  C   UNL     1      37.172  14.034 121.865 -0.36 -0.00    +0.000 A 
DOCKED: ATOM     27  C   UNL     1      37.475  13.248 120.743 -0.41 -0.00    +0.000 A 
DOCKED: ATOM     28  C   UNL     1      37.436  11.854 120.820 -0.46 -0.00    +0.000 A 
DOCKED: ATOM     29  C   UNL     1      37.070  11.215 122.019 -0.47 -0.00    +0.000 A 
DOCKED: ATOM     30  C   UNL     1      36.760  12.005 123.141 -0.60 -0.00    +0.000 A 
DOCKED: ATOM     31  C   UNL     1      36.800  13.400 123.062 -0.51 -0.00    +0.000 A 
DOCKED: ATOM     32  CM  UNL     1      37.118  12.626 121.942 +0.00 -0.00    +0.000 AC
DOCKED: BRANCH  27  30
DOCKED: ATOM     33  C   UNL     1      37.020   9.734 122.120 -0.60 -0.00    +0.000 C 
DOCKED: ATOM     34  N   UNL     1      37.117   9.068 123.384 -0.58 -0.00    +0.000 N 
DOCKED: ATOM     35  O   UNL     1      36.966   7.726 123.458 -2.64 -0.00    +0.000 OA
DOCKED: ATOM     36  O   UNL     1      36.904   9.044 121.071 -2.67 -0.00    +0.000 OA
DOCKED: ATOM     37  H   UNL     1      37.295   9.588 124.200 -0.61 -0.00    +0.000 HD
DOCKED: ENDBRANCH  27  30
DOCKED: ENDBRANCH  22  24
DOCKED: ENDBRANCH  19  21
DOCKED: ENDBRANCH   1  19
DOCKED: TORSDOF 9DOCKED: TER
DOCKED: ENDMDL
________________________________________________________________________________


	BEGINNING GENETIC ALGORITHM DOCKING 74 of 100
Run: 74 Seed: 258237658 989164240 [ Run 74 of 100 GA/GALS ]
Beginning LAMARCKIAN GENETIC ALGORITHM (LGA), with a maximum of 2500000 energy evaluations.

Final-Value: -14.890


	FINAL GENETIC ALGORITHM DOCKED STATE
	_______________________________________________


Detailed state:  trans 40.147 15.327 120.956 quatxyzw -0.755223 0.175669 -0.553253 0.304449 center 1.619 0.086 0.013 ntor 9 -164.5136 156.1579 112.0480 -171.3705 -34.4521 -161.8854 -161.3918 109.6984 30.1943
State:	 40.147  15.327 120.956  -0.793  0.184 -0.581 144.550   -164.51  156.16  112.05 -171.37  -34.45 -161.89 -161.39  109.70   30.19

DOCKED: MODEL       74
DOCKED: USER    Run = 74
DOCKED: USER    DPF = ligand_dock.biased.dpf
DOCKED: USER  
DOCKED: USER    Estimated Free Energy of Binding    =  -10.28 kcal/mol  [=(1)+(2)+(3)-(4)]
DOCKED: USER    Estimated Inhibition Constant, Ki   =   28.91 nM (nanomolar)  [Temperature = 298.15 K]
DOCKED: USER    
DOCKED: USER    (1) Final Intermolecular Energy     =  -12.97 kcal/mol
DOCKED: USER        vdW + Hbond + desolv Energy     =  -12.97 kcal/mol
DOCKED: USER        Electrostatic Energy            =   +0.00 kcal/mol
DOCKED: USER    (2) Final Total Internal Energy     =   -1.92 kcal/mol
DOCKED: USER    (3) Torsional Free Energy           =   +2.68 kcal/mol
DOCKED: USER    (4) Unbound System's Energy  [=(2)] =   -1.92 kcal/mol
DOCKED: USER    
DOCKED: USER    
DOCKED: USER    NEWDPF move ligand.dum.pdbqt
DOCKED: USER    NEWDPF about 1.619000 0.086000 0.013000
DOCKED: USER    NEWDPF tran0 40.147234 15.326653 120.955510
DOCKED: USER    NEWDPF quaternion0 -0.755223 0.175669 -0.553253 0.304449
DOCKED: USER    NEWDPF axisangle0 -0.792861 0.184424 -0.580826 144.549908
DOCKED: USER    NEWDPF quat0 -0.792861 0.184424 -0.580826 144.549908
DOCKED: USER    NEWDPF dihe0 -164.51 156.16 112.05 -171.37 -34.45 -161.89 -161.39 109.70 30.19 
DOCKED: USER  keepresnum = 1 
DOCKED: USER  
DOCKED: REMARK  Name = 
DOCKED: REMARK  11 active torsions:
DOCKED: REMARK  status: ('A' for Active; 'I' for Inactive)
DOCKED: REMARK    1  A    between atoms: C_2  and  O_3
DOCKED: REMARK    2  A    between atoms: O_3  and  C_4
DOCKED: REMARK    3  A    between atoms: C_4  and  C_5
DOCKED: REMARK    4  A    between atoms: C_10  and  C_11
DOCKED: REMARK    5  A    between atoms: C_11  and  N_12
DOCKED: REMARK    6  A    between atoms: N_12  and  C_13
DOCKED: REMARK    7  A    between atoms: N_12  and  C_15
DOCKED: REMARK    8  A    between atoms: C_13  and  C_14
DOCKED: REMARK    9  A    between atoms: C_15  and  C_16
DOCKED: REMARK   10  A    between atoms: N_21  and  C_22
DOCKED: REMARK   11  A    between atoms: C_25  and  C_26
DOCKED: REMARK                            x       y       z     vdW  Elec       q    Type
DOCKED: REMARK                         _______ _______ _______ _____ _____    ______ ____
DOCKED: USER                              x       y       z     vdW  Elec       q    Type
DOCKED: USER                           _______ _______ _______ _____ _____    ______ ____
DOCKED: ROOT
DOCKED: ATOM      1  C   UNL     1      38.751  17.133 121.681 -0.14 -0.00    +0.000 C 
DOCKED: ENDROOT
DOCKED: BRANCH   1   2
DOCKED: ATOM      2  C   UNL     1      38.349  16.841 120.264 -0.09 -0.00    +0.000 A 
DOCKED: ATOM      3  C   UNL     1      37.006  16.932 119.869 -0.12 -0.00    +0.000 A 
DOCKED: ATOM      4  C   UNL     1      36.635  16.642 118.552 -0.12 -0.00    +0.000 A 
DOCKED: ATOM      5  C   UNL     1      37.601  16.244 117.617 -0.11 -0.00    +0.000 A 
DOCKED: ATOM      6  C   UNL     1      37.236  15.942 116.296 -0.11 -0.00    +0.000 A 
DOCKED: ATOM      7  C   UNL     1      38.201  15.510 115.372 -0.16 -0.00    +0.000 A 
DOCKED: ATOM      8  C   UNL     1      39.545  15.423 115.769 -0.24 -0.00    +0.000 A 
DOCKED: ATOM      9  C   UNL     1      39.919  15.729 117.080 -0.17 -0.00    +0.000 A 
DOCKED: ATOM     10  C   UNL     1      38.955  16.136 118.013 -0.12 -0.00    +0.000 A 
DOCKED: ATOM     11  C   UNL     1      39.320  16.437 119.334 -0.11 -0.00    +0.000 A 
DOCKED: ATOM     12  CM  UNL     1      37.977  16.539 118.942 +0.00 -0.00    +0.000 AC
DOCKED: ATOM     13  CM  UNL     1      38.576  15.830 116.691 +0.00 -0.00    +0.000 AC
DOCKED: BRANCH   7  12
DOCKED: ATOM     14  C   UNL     1      37.802  15.198 113.952 -0.20 -0.00    +0.000 C 
DOCKED: BRANCH  12  13
DOCKED: ATOM     15  N   UNL     1      37.314  13.807 113.831 -0.31 -0.00    +0.000 N 
DOCKED: ATOM     16  H   UNL     1      37.900  13.438 113.082 -0.02 -0.00    +0.000 HD
DOCKED: BRANCH  13  15
DOCKED: ATOM     17  C   UNL     1      37.620  12.951 114.997 -0.36 -0.00    +0.000 C 
DOCKED: ATOM     18  C   UNL     1      38.933  12.177 114.865 -0.40 -0.00    +0.000 C 
DOCKED: ENDBRANCH  13  15
DOCKED: BRANCH  13  17
DOCKED: ATOM     19  C   UNL     1      35.960  13.620 113.250 -0.30 -0.00    +0.000 C 
DOCKED: ATOM     20  C   UNL     1      35.933  12.886 111.902 -0.33 -0.00    +0.000 C 
DOCKED: ENDBRANCH  13  17
DOCKED: ENDBRANCH  12  13
DOCKED: ENDBRANCH   7  12
DOCKED: ENDBRANCH   1   2
DOCKED: BRANCH   1  19
DOCKED: ATOM     21  O   UNL     1      39.710  16.170 122.105 -0.25 -0.00    +0.000 OA
DOCKED: BRANCH  19  21
DOCKED: ATOM     22  O   UNL     1      40.142  14.128 123.087 -0.81 -0.00    +0.000 OA
DOCKED: ATOM     23  C   UNL     1      39.377  14.840 122.381 -0.43 -0.00    +0.000 C 
DOCKED: ATOM     24  N   UNL     1      38.182  14.289 121.811 -0.37 -0.00    +0.000 N 
DOCKED: ATOM     25  H   UNL     1      37.679  14.844 121.171 +0.00 -0.00    +0.000 HD
DOCKED: BRANCH  22  24
DOCKED: ATOM     26  C   UNL     1      37.668  12.981 122.112 -0.42 -0.00    +0.000 A 
DOCKED: ATOM     27  C   UNL     1      37.461  12.615 123.450 -0.50 -0.00    +0.000 A 
DOCKED: ATOM     28  C   UNL     1      36.987  11.341 123.773 -0.55 -0.00    +0.000 A 
DOCKED: ATOM     29  C   UNL     1      36.731  10.396 122.762 -0.59 -0.00    +0.000 A 
DOCKED: ATOM     30  C   UNL     1      36.947  10.764 121.421 -0.27 -0.00    +0.000 A 
DOCKED: ATOM     31  C   UNL     1      37.420  12.039 121.100 -0.45 -0.00    +0.000 A 
DOCKED: ATOM     32  CM  UNL     1      37.202  11.689 122.436 +0.00 -0.00    +0.000 AC
DOCKED: BRANCH  27  30
DOCKED: ATOM     33  C   UNL     1      36.230   9.037 123.085 -0.69 -0.00    +0.000 C 
DOCKED: ATOM     34  N   UNL     1      34.828   8.757 123.167 -0.59 -0.00    +0.000 N 
DOCKED: ATOM     35  O   UNL     1      34.398   7.490 123.361 -0.74 -0.00    +0.000 OA
DOCKED: ATOM     36  O   UNL     1      37.054   8.107 123.306 -2.46 -0.00    +0.000 OA
DOCKED: ATOM     37  H   UNL     1      34.177   9.490 123.083 -0.44 -0.00    +0.000 HD
DOCKED: ENDBRANCH  27  30
DOCKED: ENDBRANCH  22  24
DOCKED: ENDBRANCH  19  21
DOCKED: ENDBRANCH   1  19
DOCKED: TORSDOF 9DOCKED: TER
DOCKED: ENDMDL
________________________________________________________________________________


	BEGINNING GENETIC ALGORITHM DOCKING 75 of 100
Run: 75 Seed: 1220901771 898005748 [ Run 75 of 100 GA/GALS ]
Beginning LAMARCKIAN GENETIC ALGORITHM (LGA), with a maximum of 2500000 energy evaluations.

Final-Value: -17.158


	FINAL GENETIC ALGORITHM DOCKED STATE
	_______________________________________________


Detailed state:  trans 34.452 16.333 123.026 quatxyzw -0.330793 0.570868 -0.354915 0.662360 center 1.619 0.086 0.013 ntor 9 -177.5292 -47.5076 171.5699 141.6980 -49.4975 -62.6254 180.0000 -112.4725 -45.7521
State:	 34.452  16.333 123.026  -0.442  0.762 -0.474 97.040   -177.53  -47.51  171.57  141.70  -49.50  -62.63  180.00 -112.47  -45.75

DOCKED: MODEL       75
DOCKED: USER    Run = 75
DOCKED: USER    DPF = ligand_dock.biased.dpf
DOCKED: USER  
DOCKED: USER    Estimated Free Energy of Binding    =  -12.41 kcal/mol  [=(1)+(2)+(3)-(4)]
DOCKED: USER    Estimated Inhibition Constant, Ki   =  803.38 pM (picomolar)  [Temperature = 298.15 K]
DOCKED: USER    
DOCKED: USER    (1) Final Intermolecular Energy     =  -15.09 kcal/mol
DOCKED: USER        vdW + Hbond + desolv Energy     =  -15.09 kcal/mol
DOCKED: USER        Electrostatic Energy            =   +0.00 kcal/mol
DOCKED: USER    (2) Final Total Internal Energy     =   -2.07 kcal/mol
DOCKED: USER    (3) Torsional Free Energy           =   +2.68 kcal/mol
DOCKED: USER    (4) Unbound System's Energy  [=(2)] =   -2.07 kcal/mol
DOCKED: USER    
DOCKED: USER    
DOCKED: USER    NEWDPF move ligand.dum.pdbqt
DOCKED: USER    NEWDPF about 1.619000 0.086000 0.013000
DOCKED: USER    NEWDPF tran0 34.452219 16.332902 123.026161
DOCKED: USER    NEWDPF quaternion0 -0.330793 0.570868 -0.354915 0.662360
DOCKED: USER    NEWDPF axisangle0 -0.441537 0.761984 -0.473735 97.039747
DOCKED: USER    NEWDPF quat0 -0.441537 0.761984 -0.473735 97.039747
DOCKED: USER    NEWDPF dihe0 -177.53 -47.51 171.57 141.70 -49.50 -62.63 180.00 -112.47 -45.75 
DOCKED: USER  keepresnum = 1 
DOCKED: USER  
DOCKED: REMARK  Name = 
DOCKED: REMARK  11 active torsions:
DOCKED: REMARK  status: ('A' for Active; 'I' for Inactive)
DOCKED: REMARK    1  A    between atoms: C_2  and  O_3
DOCKED: REMARK    2  A    between atoms: O_3  and  C_4
DOCKED: REMARK    3  A    between atoms: C_4  and  C_5
DOCKED: REMARK    4  A    between atoms: C_10  and  C_11
DOCKED: REMARK    5  A    between atoms: C_11  and  N_12
DOCKED: REMARK    6  A    between atoms: N_12  and  C_13
DOCKED: REMARK    7  A    between atoms: N_12  and  C_15
DOCKED: REMARK    8  A    between atoms: C_13  and  C_14
DOCKED: REMARK    9  A    between atoms: C_15  and  C_16
DOCKED: REMARK   10  A    between atoms: N_21  and  C_22
DOCKED: REMARK   11  A    between atoms: C_25  and  C_26
DOCKED: REMARK                            x       y       z     vdW  Elec       q    Type
DOCKED: REMARK                         _______ _______ _______ _____ _____    ______ ____
DOCKED: USER                              x       y       z     vdW  Elec       q    Type
DOCKED: USER                           _______ _______ _______ _____ _____    ______ ____
DOCKED: ROOT
DOCKED: ATOM      1  C   UNL     1      35.986  18.172 123.067 -0.24 -0.00    +0.000 C 
DOCKED: ENDROOT
DOCKED: BRANCH   1   2
DOCKED: ATOM      2  C   UNL     1      35.675  17.923 121.619 -0.23 -0.00    +0.000 A 
DOCKED: ATOM      3  C   UNL     1      34.389  18.166 121.113 -0.30 -0.00    +0.000 A 
DOCKED: ATOM      4  C   UNL     1      34.098  17.916 119.768 -0.13 -0.00    +0.000 A 
DOCKED: ATOM      5  C   UNL     1      35.088  17.406 118.915 -0.11 -0.00    +0.000 A 
DOCKED: ATOM      6  C   UNL     1      34.803  17.143 117.567 -0.13 -0.00    +0.000 A 
DOCKED: ATOM      7  C   UNL     1      35.786  16.601 116.724 -0.10 -0.00    +0.000 A 
DOCKED: ATOM      8  C   UNL     1      37.074  16.362 117.231 -0.10 -0.00    +0.000 A 
DOCKED: ATOM      9  C   UNL     1      37.369  16.628 118.571 -0.11 -0.00    +0.000 A 
DOCKED: ATOM     10  C   UNL     1      36.382  17.146 119.423 -0.13 -0.00    +0.000 A 
DOCKED: ATOM     11  C   UNL     1      36.668  17.408 120.771 -0.14 -0.00    +0.000 A 
DOCKED: ATOM     12  CM  UNL     1      35.383  17.661 120.268 +0.00 -0.00    +0.000 AC
DOCKED: ATOM     13  CM  UNL     1      36.084  16.881 118.072 +0.00 -0.00    +0.000 AC
DOCKED: BRANCH   7  12
DOCKED: ATOM     14  C   UNL     1      35.476  16.332 115.273 -0.09 -0.00    +0.000 C 
DOCKED: BRANCH  12  13
DOCKED: ATOM     15  N   UNL     1      35.185  14.898 115.050 -0.17 -0.00    +0.000 N 
DOCKED: ATOM     16  H   UNL     1      35.114  14.850 114.033 +0.00 -0.00    +0.000 HD
DOCKED: BRANCH  13  15
DOCKED: ATOM     17  C   UNL     1      36.302  13.991 115.388 -0.32 -0.00    +0.000 C 
DOCKED: ATOM     18  C   UNL     1      37.026  13.423 114.165 -0.37 -0.00    +0.000 C 
DOCKED: ENDBRANCH  13  15
DOCKED: BRANCH  13  17
DOCKED: ATOM     19  C   UNL     1      33.837  14.417 115.451 -0.29 -0.00    +0.000 C 
DOCKED: ATOM     20  C   UNL     1      33.731  13.934 116.904 -0.32 -0.00    +0.000 C 
DOCKED: ENDBRANCH  13  17
DOCKED: ENDBRANCH  12  13
DOCKED: ENDBRANCH   7  12
DOCKED: ENDBRANCH   1   2
DOCKED: BRANCH   1  19
DOCKED: ATOM     21  O   UNL     1      35.180  17.321 123.873 -0.36 -0.00    +0.000 OA
DOCKED: BRANCH  19  21
DOCKED: ATOM     22  O   UNL     1      34.552  15.219 124.588 -0.67 -0.00    +0.000 OA
DOCKED: ATOM     23  C   UNL     1      35.306  15.929 123.866 -0.49 -0.00    +0.000 C 
DOCKED: ATOM     24  N   UNL     1      36.332  15.327 123.066 -0.38 -0.00    +0.000 N 
DOCKED: ATOM     25  H   UNL     1      36.972  15.923 122.613 -0.00 -0.00    +0.000 HD
DOCKED: BRANCH  22  24
DOCKED: ATOM     26  C   UNL     1      36.489  13.910 122.879 -0.43 -0.00    +0.000 A 
DOCKED: ATOM     27  C   UNL     1      37.080  13.433 121.701 -0.40 -0.00    +0.000 A 
DOCKED: ATOM     28  C   UNL     1      37.221  12.060 121.481 -0.46 -0.00    +0.000 A 
DOCKED: ATOM     29  C   UNL     1      36.751  11.134 122.430 -0.57 -0.00    +0.000 A 
DOCKED: ATOM     30  C   UNL     1      36.152  11.615 123.609 -0.61 -0.00    +0.000 A 
DOCKED: ATOM     31  C   UNL     1      36.013  12.988 123.826 -0.53 -0.00    +0.000 A 
DOCKED: ATOM     32  CM  UNL     1      36.618  12.523 122.655 +0.00 -0.00    +0.000 AC
DOCKED: BRANCH  27  30
DOCKED: ATOM     33  C   UNL     1      36.890   9.671 122.215 -0.64 -0.00    +0.000 C 
DOCKED: ATOM     34  N   UNL     1      37.045   8.765 123.313 -0.65 -0.00    +0.000 N 
DOCKED: ATOM     35  O   UNL     1      37.065   7.430 123.095 -2.37 -0.00    +0.000 OA
DOCKED: ATOM     36  O   UNL     1      36.884   9.213 121.039 -2.67 -0.00    +0.000 OA
DOCKED: ATOM     37  H   UNL     1      37.139   9.116 124.227 -0.58 -0.00    +0.000 HD
DOCKED: ENDBRANCH  27  30
DOCKED: ENDBRANCH  22  24
DOCKED: ENDBRANCH  19  21
DOCKED: ENDBRANCH   1  19
DOCKED: TORSDOF 9DOCKED: TER
DOCKED: ENDMDL
________________________________________________________________________________


	BEGINNING GENETIC ALGORITHM DOCKING 76 of 100
Run: 76 Seed: 1731572380 529980891 [ Run 76 of 100 GA/GALS ]
Beginning LAMARCKIAN GENETIC ALGORITHM (LGA), with a maximum of 2500000 energy evaluations.

Final-Value: -17.695


	FINAL GENETIC ALGORITHM DOCKED STATE
	_______________________________________________


Detailed state:  trans 37.362 16.783 121.791 quatxyzw 0.365484 0.482245 -0.286552 -0.742798 center 1.619 0.086 0.013 ntor 9 47.7722 160.8505 179.8913 151.6940 127.4786 170.9294 79.9933 -103.9231 1.0608
State:	 37.362  16.783 121.791   0.546  0.720 -0.428 -84.059     47.77  160.85  179.89  151.69  127.48  170.93   79.99 -103.92    1.06

DOCKED: MODEL       76
DOCKED: USER    Run = 76
DOCKED: USER    DPF = ligand_dock.biased.dpf
DOCKED: USER  
DOCKED: USER    Estimated Free Energy of Binding    =  -13.24 kcal/mol  [=(1)+(2)+(3)-(4)]
DOCKED: USER    Estimated Inhibition Constant, Ki   =  195.86 pM (picomolar)  [Temperature = 298.15 K]
DOCKED: USER    
DOCKED: USER    (1) Final Intermolecular Energy     =  -15.93 kcal/mol
DOCKED: USER        vdW + Hbond + desolv Energy     =  -15.93 kcal/mol
DOCKED: USER        Electrostatic Energy            =   +0.00 kcal/mol
DOCKED: USER    (2) Final Total Internal Energy     =   -1.77 kcal/mol
DOCKED: USER    (3) Torsional Free Energy           =   +2.68 kcal/mol
DOCKED: USER    (4) Unbound System's Energy  [=(2)] =   -1.77 kcal/mol
DOCKED: USER    
DOCKED: USER    
DOCKED: USER    NEWDPF move ligand.dum.pdbqt
DOCKED: USER    NEWDPF about 1.619000 0.086000 0.013000
DOCKED: USER    NEWDPF tran0 37.361546 16.782903 121.791304
DOCKED: USER    NEWDPF quaternion0 0.365484 0.482245 -0.286552 -0.742798
DOCKED: USER    NEWDPF axisangle0 0.545893 0.720290 -0.427999 -84.059397
DOCKED: USER    NEWDPF quat0 0.545893 0.720290 -0.427999 -84.059397
DOCKED: USER    NEWDPF dihe0 47.77 160.85 179.89 151.69 127.48 170.93 79.99 -103.92 1.06 
DOCKED: USER  keepresnum = 1 
DOCKED: USER  
DOCKED: REMARK  Name = 
DOCKED: REMARK  11 active torsions:
DOCKED: REMARK  status: ('A' for Active; 'I' for Inactive)
DOCKED: REMARK    1  A    between atoms: C_2  and  O_3
DOCKED: REMARK    2  A    between atoms: O_3  and  C_4
DOCKED: REMARK    3  A    between atoms: C_4  and  C_5
DOCKED: REMARK    4  A    between atoms: C_10  and  C_11
DOCKED: REMARK    5  A    between atoms: C_11  and  N_12
DOCKED: REMARK    6  A    between atoms: N_12  and  C_13
DOCKED: REMARK    7  A    between atoms: N_12  and  C_15
DOCKED: REMARK    8  A    between atoms: C_13  and  C_14
DOCKED: REMARK    9  A    between atoms: C_15  and  C_16
DOCKED: REMARK   10  A    between atoms: N_21  and  C_22
DOCKED: REMARK   11  A    between atoms: C_25  and  C_26
DOCKED: REMARK                            x       y       z     vdW  Elec       q    Type
DOCKED: REMARK                         _______ _______ _______ _____ _____    ______ ____
DOCKED: USER                              x       y       z     vdW  Elec       q    Type
DOCKED: USER                           _______ _______ _______ _____ _____    ______ ____
DOCKED: ROOT
DOCKED: ATOM      1  C   UNL     1      36.051  18.493 120.745 -0.19 -0.00    +0.000 C 
DOCKED: ENDROOT
DOCKED: BRANCH   1   2
DOCKED: ATOM      2  C   UNL     1      35.660  18.499 122.195 -0.22 -0.00    +0.000 A 
DOCKED: ATOM      3  C   UNL     1      35.949  19.604 123.008 -0.16 -0.00    +0.000 A 
DOCKED: ATOM      4  C   UNL     1      35.598  19.598 124.362 -0.18 -0.00    +0.000 A 
DOCKED: ATOM      5  C   UNL     1      34.966  18.479 124.922 -0.27 -0.00    +0.000 A 
DOCKED: ATOM      6  C   UNL     1      34.620  18.459 126.282 -0.24 -0.00    +0.000 A 
DOCKED: ATOM      7  C   UNL     1      34.018  17.323 126.847 -0.30 -0.00    +0.000 A 
DOCKED: ATOM      8  C   UNL     1      33.726  16.219 126.030 -0.32 -0.00    +0.000 A 
DOCKED: ATOM      9  C   UNL     1      34.061  16.232 124.673 -0.45 -0.00    +0.000 A 
DOCKED: ATOM     10  C   UNL     1      34.685  17.355 124.110 -0.37 -0.00    +0.000 A 
DOCKED: ATOM     11  C   UNL     1      35.033  17.373 122.751 -0.32 -0.00    +0.000 A 
DOCKED: ATOM     12  CM  UNL     1      35.315  18.485 123.558 -0.07 -0.00    +0.000 AC
DOCKED: ATOM     13  CM  UNL     1      34.346  17.344 125.478 -0.30 -0.00    +0.000 AC
DOCKED: BRANCH   7  12
DOCKED: ATOM     14  C   UNL     1      33.638  17.314 128.306 -0.32 -0.00    +0.000 C 
DOCKED: BRANCH  12  13
DOCKED: ATOM     15  N   UNL     1      32.405  18.098 128.537 -0.22 -0.00    +0.000 N 
DOCKED: ATOM     16  H   UNL     1      32.433  18.249 129.546 +0.01 -0.00    +0.000 HD
DOCKED: BRANCH  13  15
DOCKED: ATOM     17  C   UNL     1      32.431  19.458 127.958 -0.18 -0.00    +0.000 C 
DOCKED: ATOM     18  C   UNL     1      31.328  19.709 126.927 -0.30 -0.00    +0.000 C 
DOCKED: ENDBRANCH  13  15
DOCKED: BRANCH  13  17
DOCKED: ATOM     19  C   UNL     1      31.115  17.376 128.395 -0.43 -0.00    +0.000 C 
DOCKED: ATOM     20  C   UNL     1      30.252  17.342 129.664 -0.38 -0.00    +0.000 C 
DOCKED: ENDBRANCH  13  17
DOCKED: ENDBRANCH  12  13
DOCKED: ENDBRANCH   7  12
DOCKED: ENDBRANCH   1   2
DOCKED: BRANCH   1  19
DOCKED: ATOM     21  O   UNL     1      37.122  17.576 120.552 -0.12 -0.00    +0.000 OA
DOCKED: BRANCH  19  21
DOCKED: ATOM     22  O   UNL     1      36.513  15.594 119.540 -0.22 -0.00    +0.000 OA
DOCKED: ATOM     23  C   UNL     1      36.943  16.190 120.566 -0.19 -0.00    +0.000 C 
DOCKED: ATOM     24  N   UNL     1      37.210  15.466 121.776 -0.25 -0.00    +0.000 N 
DOCKED: ATOM     25  H   UNL     1      37.428  15.985 122.584 -0.00 -0.00    +0.000 HD
DOCKED: BRANCH  22  24
DOCKED: ATOM     26  C   UNL     1      37.181  14.033 121.886 -0.36 -0.00    +0.000 A 
DOCKED: ATOM     27  C   UNL     1      37.421  13.250 120.748 -0.41 -0.00    +0.000 A 
DOCKED: ATOM     28  C   UNL     1      37.373  11.856 120.821 -0.46 -0.00    +0.000 A 
DOCKED: ATOM     29  C   UNL     1      37.060  11.215 122.035 -0.48 -0.00    +0.000 A 
DOCKED: ATOM     30  C   UNL     1      36.812  12.003 123.173 -0.60 -0.00    +0.000 A 
DOCKED: ATOM     31  C   UNL     1      36.862  13.397 123.097 -0.51 -0.00    +0.000 A 
DOCKED: ATOM     32  CM  UNL     1      37.118  12.625 121.961 +0.00 -0.00    +0.000 AC
DOCKED: BRANCH  27  30
DOCKED: ATOM     33  C   UNL     1      37.002   9.734 122.132 -0.60 -0.00    +0.000 C 
DOCKED: ATOM     34  N   UNL     1      37.158   9.062 123.386 -0.56 -0.00    +0.000 N 
DOCKED: ATOM     35  O   UNL     1      36.998   7.721 123.464 -2.65 -0.00    +0.000 OA
DOCKED: ATOM     36  O   UNL     1      36.824   9.049 121.088 -2.65 -0.00    +0.000 OA
DOCKED: ATOM     37  H   UNL     1      37.384   9.577 124.194 -0.62 -0.00    +0.000 HD
DOCKED: ENDBRANCH  27  30
DOCKED: ENDBRANCH  22  24
DOCKED: ENDBRANCH  19  21
DOCKED: ENDBRANCH   1  19
DOCKED: TORSDOF 9DOCKED: TER
DOCKED: ENDMDL
________________________________________________________________________________


	BEGINNING GENETIC ALGORITHM DOCKING 77 of 100
Run: 77 Seed: 1151064019 815437342 [ Run 77 of 100 GA/GALS ]
Beginning LAMARCKIAN GENETIC ALGORITHM (LGA), with a maximum of 2500000 energy evaluations.

Final-Value: -17.749


	FINAL GENETIC ALGORITHM DOCKED STATE
	_______________________________________________


Detailed state:  trans 37.375 17.115 124.569 quatxyzw -0.176073 -0.443171 0.203982 0.854979 center 1.619 0.086 0.013 ntor 9 179.3456 -155.8940 -173.1615 -96.1435 134.2209 48.6923 -176.9407 -75.6968 -16.9491
State:	 37.375  17.115 124.569  -0.339 -0.854  0.393 62.485    179.35 -155.89 -173.16  -96.14  134.22   48.69 -176.94  -75.70  -16.95

DOCKED: MODEL       77
DOCKED: USER    Run = 77
DOCKED: USER    DPF = ligand_dock.biased.dpf
DOCKED: USER  
DOCKED: USER    Estimated Free Energy of Binding    =  -13.36 kcal/mol  [=(1)+(2)+(3)-(4)]
DOCKED: USER    Estimated Inhibition Constant, Ki   =  161.77 pM (picomolar)  [Temperature = 298.15 K]
DOCKED: USER    
DOCKED: USER    (1) Final Intermolecular Energy     =  -16.04 kcal/mol
DOCKED: USER        vdW + Hbond + desolv Energy     =  -16.04 kcal/mol
DOCKED: USER        Electrostatic Energy            =   +0.00 kcal/mol
DOCKED: USER    (2) Final Total Internal Energy     =   -1.71 kcal/mol
DOCKED: USER    (3) Torsional Free Energy           =   +2.68 kcal/mol
DOCKED: USER    (4) Unbound System's Energy  [=(2)] =   -1.71 kcal/mol
DOCKED: USER    
DOCKED: USER    
DOCKED: USER    NEWDPF move ligand.dum.pdbqt
DOCKED: USER    NEWDPF about 1.619000 0.086000 0.013000
DOCKED: USER    NEWDPF tran0 37.374942 17.114751 124.568576
DOCKED: USER    NEWDPF quaternion0 -0.176073 -0.443171 0.203982 0.854979
DOCKED: USER    NEWDPF axisangle0 -0.339474 -0.854450 0.393284 62.485127
DOCKED: USER    NEWDPF quat0 -0.339474 -0.854450 0.393284 62.485127
DOCKED: USER    NEWDPF dihe0 179.35 -155.89 -173.16 -96.14 134.22 48.69 -176.94 -75.70 -16.95 
DOCKED: USER  keepresnum = 1 
DOCKED: USER  
DOCKED: REMARK  Name = 
DOCKED: REMARK  11 active torsions:
DOCKED: REMARK  status: ('A' for Active; 'I' for Inactive)
DOCKED: REMARK    1  A    between atoms: C_2  and  O_3
DOCKED: REMARK    2  A    between atoms: O_3  and  C_4
DOCKED: REMARK    3  A    between atoms: C_4  and  C_5
DOCKED: REMARK    4  A    between atoms: C_10  and  C_11
DOCKED: REMARK    5  A    between atoms: C_11  and  N_12
DOCKED: REMARK    6  A    between atoms: N_12  and  C_13
DOCKED: REMARK    7  A    between atoms: N_12  and  C_15
DOCKED: REMARK    8  A    between atoms: C_13  and  C_14
DOCKED: REMARK    9  A    between atoms: C_15  and  C_16
DOCKED: REMARK   10  A    between atoms: N_21  and  C_22
DOCKED: REMARK   11  A    between atoms: C_25  and  C_26
DOCKED: REMARK                            x       y       z     vdW  Elec       q    Type
DOCKED: REMARK                         _______ _______ _______ _____ _____    ______ ____
DOCKED: USER                              x       y       z     vdW  Elec       q    Type
DOCKED: USER                           _______ _______ _______ _____ _____    ______ ____
DOCKED: ROOT
DOCKED: ATOM      1  C   UNL     1      35.789  17.898 122.953 -0.27 -0.00    +0.000 C 
DOCKED: ENDROOT
DOCKED: BRANCH   1   2
DOCKED: ATOM      2  C   UNL     1      35.179  18.168 124.299 -0.28 -0.00    +0.000 A 
DOCKED: ATOM      3  C   UNL     1      35.304  19.429 124.899 -0.19 -0.00    +0.000 A 
DOCKED: ATOM      4  C   UNL     1      34.749  19.671 126.160 -0.17 -0.00    +0.000 A 
DOCKED: ATOM      5  C   UNL     1      34.075  18.649 126.843 -0.23 -0.00    +0.000 A 
DOCKED: ATOM      6  C   UNL     1      33.524  18.879 128.113 -0.14 -0.00    +0.000 A 
DOCKED: ATOM      7  C   UNL     1      32.881  17.843 128.808 -0.22 -0.00    +0.000 A 
DOCKED: ATOM      8  C   UNL     1      32.754  16.582 128.204 -0.39 -0.00    +0.000 A 
DOCKED: ATOM      9  C   UNL     1      33.293  16.345 126.936 -0.34 -0.00    +0.000 A 
DOCKED: ATOM     10  C   UNL     1      33.959  17.370 126.249 -0.35 -0.00    +0.000 A 
DOCKED: ATOM     11  C   UNL     1      34.511  17.138 124.980 -0.39 -0.00    +0.000 A 
DOCKED: ATOM     12  CM  UNL     1      34.629  18.405 125.572 -0.28 -0.00    +0.000 AC
DOCKED: ATOM     13  CM  UNL     1      33.414  17.611 127.526 +0.00 -0.00    +0.000 AC
DOCKED: BRANCH   7  12
DOCKED: ATOM     14  C   UNL     1      32.281  18.102 130.167 -0.21 -0.00    +0.000 C 
DOCKED: BRANCH  12  13
DOCKED: ATOM     15  N   UNL     1      30.930  18.692 130.047 -0.24 -0.00    +0.000 N 
DOCKED: ATOM     16  H   UNL     1      31.091  19.468 129.405 +0.01 -0.00    +0.000 HD
DOCKED: BRANCH  13  15
DOCKED: ATOM     17  C   UNL     1      29.950  17.831 129.350 -0.38 -0.00    +0.000 C 
DOCKED: ATOM     18  C   UNL     1      29.573  18.334 127.954 -0.42 -0.00    +0.000 C 
DOCKED: ENDBRANCH  13  15
DOCKED: BRANCH  13  17
DOCKED: ATOM     19  C   UNL     1      30.404  19.411 131.235 -0.20 -0.00    +0.000 C 
DOCKED: ATOM     20  C   UNL     1      29.221  20.347 130.951 -0.35 -0.00    +0.000 C 
DOCKED: ENDBRANCH  13  17
DOCKED: ENDBRANCH  12  13
DOCKED: ENDBRANCH   7  12
DOCKED: ENDBRANCH   1   2
DOCKED: BRANCH   1  19
DOCKED: ATOM     21  O   UNL     1      37.109  17.397 123.129 -0.21 -0.00    +0.000 OA
DOCKED: BRANCH  19  21
DOCKED: ATOM     22  O   UNL     1      38.600  15.640 123.244 -0.35 -0.00    +0.000 OA
DOCKED: ATOM     23  C   UNL     1      37.428  16.042 123.004 -0.32 -0.00    +0.000 C 
DOCKED: ATOM     24  N   UNL     1      36.418  15.127 122.555 -0.33 -0.00    +0.000 N 
DOCKED: ATOM     25  H   UNL     1      35.555  15.502 122.266 -0.01 -0.00    +0.000 HD
DOCKED: BRANCH  22  24
DOCKED: ATOM     26  C   UNL     1      36.583  13.700 122.501 -0.38 -0.00    +0.000 A 
DOCKED: ATOM     27  C   UNL     1      36.956  13.097 121.292 -0.38 -0.00    +0.000 A 
DOCKED: ATOM     28  C   UNL     1      37.098  11.709 121.203 -0.47 -0.00    +0.000 A 
DOCKED: ATOM     29  C   UNL     1      36.846  10.893 122.322 -0.54 -0.00    +0.000 A 
DOCKED: ATOM     30  C   UNL     1      36.464  11.501 123.532 -0.62 -0.00    +0.000 A 
DOCKED: ATOM     31  C   UNL     1      36.324  12.889 123.618 -0.57 -0.00    +0.000 A 
DOCKED: ATOM     32  CM  UNL     1      36.711  12.298 122.412 +0.00 -0.00    +0.000 AC
DOCKED: BRANCH  27  30
DOCKED: ATOM     33  C   UNL     1      36.988   9.417 122.248 -0.64 -0.00    +0.000 C 
DOCKED: ATOM     34  N   UNL     1      37.056   8.613 123.430 -0.66 -0.00    +0.000 N 
DOCKED: ATOM     35  O   UNL     1      37.082   7.264 123.335 -2.29 -0.00    +0.000 OA
DOCKED: ATOM     36  O   UNL     1      37.064   8.856 121.120 -2.69 -0.00    +0.000 OA
DOCKED: ATOM     37  H   UNL     1      37.086   9.044 124.315 -0.54 -0.00    +0.000 HD
DOCKED: ENDBRANCH  27  30
DOCKED: ENDBRANCH  22  24
DOCKED: ENDBRANCH  19  21
DOCKED: ENDBRANCH   1  19
DOCKED: TORSDOF 9DOCKED: TER
DOCKED: ENDMDL
________________________________________________________________________________


	BEGINNING GENETIC ALGORITHM DOCKING 78 of 100
Run: 78 Seed: 335315743 637763744 [ Run 78 of 100 GA/GALS ]
Beginning LAMARCKIAN GENETIC ALGORITHM (LGA), with a maximum of 2500000 energy evaluations.

Final-Value: -16.877


	FINAL GENETIC ALGORITHM DOCKED STATE
	_______________________________________________


Detailed state:  trans 35.484 16.068 122.886 quatxyzw 0.358820 -0.415627 0.565514 -0.615383 center 1.619 0.086 0.013 ntor 9 101.2744 89.4493 170.9761 -125.4667 133.0305 -112.0129 -101.3921 -161.7471 -180.0000
State:	 35.484  16.068 122.886   0.455 -0.527  0.717 -104.041    101.27   89.45  170.98 -125.47  133.03 -112.01 -101.39 -161.75 -180.00

DOCKED: MODEL       78
DOCKED: USER    Run = 78
DOCKED: USER    DPF = ligand_dock.biased.dpf
DOCKED: USER  
DOCKED: USER    Estimated Free Energy of Binding    =  -12.34 kcal/mol  [=(1)+(2)+(3)-(4)]
DOCKED: USER    Estimated Inhibition Constant, Ki   =  907.56 pM (picomolar)  [Temperature = 298.15 K]
DOCKED: USER    
DOCKED: USER    (1) Final Intermolecular Energy     =  -15.02 kcal/mol
DOCKED: USER        vdW + Hbond + desolv Energy     =  -15.02 kcal/mol
DOCKED: USER        Electrostatic Energy            =   +0.00 kcal/mol
DOCKED: USER    (2) Final Total Internal Energy     =   -1.86 kcal/mol
DOCKED: USER    (3) Torsional Free Energy           =   +2.68 kcal/mol
DOCKED: USER    (4) Unbound System's Energy  [=(2)] =   -1.86 kcal/mol
DOCKED: USER    
DOCKED: USER    
DOCKED: USER    NEWDPF move ligand.dum.pdbqt
DOCKED: USER    NEWDPF about 1.619000 0.086000 0.013000
DOCKED: USER    NEWDPF tran0 35.483526 16.068055 122.885592
DOCKED: USER    NEWDPF quaternion0 0.358820 -0.415627 0.565514 -0.615383
DOCKED: USER    NEWDPF axisangle0 0.455224 -0.527293 0.717449 -104.040508
DOCKED: USER    NEWDPF quat0 0.455224 -0.527293 0.717449 -104.040508
DOCKED: USER    NEWDPF dihe0 101.27 89.45 170.98 -125.47 133.03 -112.01 -101.39 -161.75 -180.00 
DOCKED: USER  keepresnum = 1 
DOCKED: USER  
DOCKED: REMARK  Name = 
DOCKED: REMARK  11 active torsions:
DOCKED: REMARK  status: ('A' for Active; 'I' for Inactive)
DOCKED: REMARK    1  A    between atoms: C_2  and  O_3
DOCKED: REMARK    2  A    between atoms: O_3  and  C_4
DOCKED: REMARK    3  A    between atoms: C_4  and  C_5
DOCKED: REMARK    4  A    between atoms: C_10  and  C_11
DOCKED: REMARK    5  A    between atoms: C_11  and  N_12
DOCKED: REMARK    6  A    between atoms: N_12  and  C_13
DOCKED: REMARK    7  A    between atoms: N_12  and  C_15
DOCKED: REMARK    8  A    between atoms: C_13  and  C_14
DOCKED: REMARK    9  A    between atoms: C_15  and  C_16
DOCKED: REMARK   10  A    between atoms: N_21  and  C_22
DOCKED: REMARK   11  A    between atoms: C_25  and  C_26
DOCKED: REMARK                            x       y       z     vdW  Elec       q    Type
DOCKED: REMARK                         _______ _______ _______ _____ _____    ______ ____
DOCKED: USER                              x       y       z     vdW  Elec       q    Type
DOCKED: USER                           _______ _______ _______ _____ _____    ______ ____
DOCKED: ROOT
DOCKED: ATOM      1  C   UNL     1      36.061  18.316 122.292 -0.23 -0.00    +0.000 C 
DOCKED: ENDROOT
DOCKED: BRANCH   1   2
DOCKED: ATOM      2  C   UNL     1      35.935  17.564 120.998 -0.19 -0.00    +0.000 A 
DOCKED: ATOM      3  C   UNL     1      36.846  16.550 120.669 -0.16 -0.00    +0.000 A 
DOCKED: ATOM      4  C   UNL     1      36.735  15.864 119.455 -0.17 -0.00    +0.000 A 
DOCKED: ATOM      5  C   UNL     1      35.719  16.196 118.548 -0.08 -0.00    +0.000 A 
DOCKED: ATOM      6  C   UNL     1      35.606  15.520 117.323 -0.19 -0.00    +0.000 A 
DOCKED: ATOM      7  C   UNL     1      34.608  15.879 116.402 -0.16 -0.00    +0.000 A 
DOCKED: ATOM      8  C   UNL     1      33.695  16.892 116.734 -0.13 -0.00    +0.000 A 
DOCKED: ATOM      9  C   UNL     1      33.795  17.565 117.955 -0.12 -0.00    +0.000 A 
DOCKED: ATOM     10  C   UNL     1      34.806  17.229 118.867 +0.04 -0.00    +0.000 A 
DOCKED: ATOM     11  C   UNL     1      34.919  17.905 120.091 -0.21 -0.00    +0.000 A 
DOCKED: ATOM     12  CM  UNL     1      35.827  16.884 119.772 +0.00 -0.00    +0.000 AC
DOCKED: ATOM     13  CM  UNL     1      34.705  16.547 117.638 +0.00 -0.00    +0.000 AC
DOCKED: BRANCH   7  12
DOCKED: ATOM     14  C   UNL     1      34.486  15.141 115.093 -0.19 -0.00    +0.000 C 
DOCKED: BRANCH  12  13
DOCKED: ATOM     15  N   UNL     1      33.733  13.879 115.264 -0.28 -0.00    +0.000 N 
DOCKED: ATOM     16  H   UNL     1      34.446  13.254 115.643 -0.02 -0.00    +0.000 HD
DOCKED: BRANCH  13  15
DOCKED: ATOM     17  C   UNL     1      32.691  13.929 116.312 -0.42 -0.00    +0.000 C 
DOCKED: ATOM     18  C   UNL     1      31.817  12.675 116.371 -0.54 -0.00    +0.000 C 
DOCKED: ENDBRANCH  13  15
DOCKED: BRANCH  13  17
DOCKED: ATOM     19  C   UNL     1      33.349  13.154 114.026 -0.35 -0.00    +0.000 C 
DOCKED: ATOM     20  C   UNL     1      34.482  12.974 113.006 -0.32 -0.00    +0.000 C 
DOCKED: ENDBRANCH  13  17
DOCKED: ENDBRANCH  12  13
DOCKED: ENDBRANCH   7  12
DOCKED: ENDBRANCH   1   2
DOCKED: BRANCH   1  19
DOCKED: ATOM     21  O   UNL     1      35.681  17.465 123.368 -0.29 -0.00    +0.000 OA
DOCKED: BRANCH  19  21
DOCKED: ATOM     22  O   UNL     1      34.455  15.532 123.082 -0.46 -0.00    +0.000 OA
DOCKED: ATOM     23  C   UNL     1      35.583  16.077 123.237 -0.42 -0.00    +0.000 C 
DOCKED: ATOM     24  N   UNL     1      36.774  15.283 123.330 -0.39 -0.00    +0.000 N 
DOCKED: ATOM     25  H   UNL     1      37.613  15.739 123.570 -0.02 -0.00    +0.000 HD
DOCKED: BRANCH  22  24
DOCKED: ATOM     26  C   UNL     1      36.824  13.866 123.094 -0.48 -0.00    +0.000 A 
DOCKED: ATOM     27  C   UNL     1      37.339  13.388 121.880 -0.43 -0.00    +0.000 A 
DOCKED: ATOM     28  C   UNL     1      37.376  12.017 121.614 -0.42 -0.00    +0.000 A 
DOCKED: ATOM     29  C   UNL     1      36.876  11.094 122.551 -0.55 -0.00    +0.000 A 
DOCKED: ATOM     30  C   UNL     1      36.354  11.576 123.765 -0.62 -0.00    +0.000 A 
DOCKED: ATOM     31  C   UNL     1      36.318  12.948 124.029 -0.41 -0.00    +0.000 A 
DOCKED: ATOM     32  CM  UNL     1      36.848  12.481 122.822 +0.00 -0.00    +0.000 AC
DOCKED: BRANCH  27  30
DOCKED: ATOM     33  C   UNL     1      36.904   9.634 122.285 -0.64 -0.00    +0.000 C 
DOCKED: ATOM     34  N   UNL     1      37.047   8.684 123.347 -0.66 -0.00    +0.000 N 
DOCKED: ATOM     35  O   UNL     1      36.966   7.359 123.090 -2.29 -0.00    +0.000 OA
DOCKED: ATOM     36  O   UNL     1      36.814   9.216 121.098 -2.65 -0.00    +0.000 OA
DOCKED: ATOM     37  H   UNL     1      37.205   8.997 124.267 -0.57 -0.00    +0.000 HD
DOCKED: ENDBRANCH  27  30
DOCKED: ENDBRANCH  22  24
DOCKED: ENDBRANCH  19  21
DOCKED: ENDBRANCH   1  19
DOCKED: TORSDOF 9DOCKED: TER
DOCKED: ENDMDL
________________________________________________________________________________


	BEGINNING GENETIC ALGORITHM DOCKING 79 of 100
Run: 79 Seed: 1352557869 1775405621 [ Run 79 of 100 GA/GALS ]
Beginning LAMARCKIAN GENETIC ALGORITHM (LGA), with a maximum of 2500000 energy evaluations.

Final-Value: -16.412


	FINAL GENETIC ALGORITHM DOCKED STATE
	_______________________________________________


Detailed state:  trans 37.948 16.101 122.860 quatxyzw 0.388703 -0.403939 0.717396 -0.413626 center 1.619 0.086 0.013 ntor 9 -179.6997 180.0000 -14.3235 139.3492 176.9800 -99.9925 72.9849 -179.8474 167.1473
State:	 37.948  16.101 122.860   0.427 -0.444  0.788 -131.134   -179.70  180.00  -14.32  139.35  176.98  -99.99   72.98 -179.85  167.15

DOCKED: MODEL       79
DOCKED: USER    Run = 79
DOCKED: USER    DPF = ligand_dock.biased.dpf
DOCKED: USER  
DOCKED: USER    Estimated Free Energy of Binding    =  -11.76 kcal/mol  [=(1)+(2)+(3)-(4)]
DOCKED: USER    Estimated Inhibition Constant, Ki   =    2.41 nM (nanomolar)  [Temperature = 298.15 K]
DOCKED: USER    
DOCKED: USER    (1) Final Intermolecular Energy     =  -14.44 kcal/mol
DOCKED: USER        vdW + Hbond + desolv Energy     =  -14.44 kcal/mol
DOCKED: USER        Electrostatic Energy            =   +0.00 kcal/mol
DOCKED: USER    (2) Final Total Internal Energy     =   -1.97 kcal/mol
DOCKED: USER    (3) Torsional Free Energy           =   +2.68 kcal/mol
DOCKED: USER    (4) Unbound System's Energy  [=(2)] =   -1.97 kcal/mol
DOCKED: USER    
DOCKED: USER    
DOCKED: USER    NEWDPF move ligand.dum.pdbqt
DOCKED: USER    NEWDPF about 1.619000 0.086000 0.013000
DOCKED: USER    NEWDPF tran0 37.947607 16.100513 122.860145
DOCKED: USER    NEWDPF quaternion0 0.388703 -0.403939 0.717396 -0.413626
DOCKED: USER    NEWDPF axisangle0 0.426936 -0.443672 0.787960 -131.134368
DOCKED: USER    NEWDPF quat0 0.426936 -0.443672 0.787960 -131.134368
DOCKED: USER    NEWDPF dihe0 -179.70 180.00 -14.32 139.35 176.98 -99.99 72.98 -179.85 167.15 
DOCKED: USER  keepresnum = 1 
DOCKED: USER  
DOCKED: REMARK  Name = 
DOCKED: REMARK  11 active torsions:
DOCKED: REMARK  status: ('A' for Active; 'I' for Inactive)
DOCKED: REMARK    1  A    between atoms: C_2  and  O_3
DOCKED: REMARK    2  A    between atoms: O_3  and  C_4
DOCKED: REMARK    3  A    between atoms: C_4  and  C_5
DOCKED: REMARK    4  A    between atoms: C_10  and  C_11
DOCKED: REMARK    5  A    between atoms: C_11  and  N_12
DOCKED: REMARK    6  A    between atoms: N_12  and  C_13
DOCKED: REMARK    7  A    between atoms: N_12  and  C_15
DOCKED: REMARK    8  A    between atoms: C_13  and  C_14
DOCKED: REMARK    9  A    between atoms: C_15  and  C_16
DOCKED: REMARK   10  A    between atoms: N_21  and  C_22
DOCKED: REMARK   11  A    between atoms: C_25  and  C_26
DOCKED: REMARK                            x       y       z     vdW  Elec       q    Type
DOCKED: REMARK                         _______ _______ _______ _____ _____    ______ ____
DOCKED: USER                              x       y       z     vdW  Elec       q    Type
DOCKED: USER                           _______ _______ _______ _____ _____    ______ ____
DOCKED: ROOT
DOCKED: ATOM      1  C   UNL     1      37.592  18.423 122.392 -0.12 -0.00    +0.000 C 
DOCKED: ENDROOT
DOCKED: BRANCH   1   2
DOCKED: ATOM      2  C   UNL     1      38.085  17.812 121.112 -0.07 -0.00    +0.000 A 
DOCKED: ATOM      3  C   UNL     1      39.453  17.568 120.917 -0.07 -0.00    +0.000 A 
DOCKED: ATOM      4  C   UNL     1      39.909  17.016 119.716 -0.08 -0.00    +0.000 A 
DOCKED: ATOM      5  C   UNL     1      39.004  16.714 118.689 -0.09 -0.00    +0.000 A 
DOCKED: ATOM      6  C   UNL     1      39.455  16.168 117.477 -0.13 -0.00    +0.000 A 
DOCKED: ATOM      7  C   UNL     1      38.550  15.900 116.437 -0.13 -0.00    +0.000 A 
DOCKED: ATOM      8  C   UNL     1      37.181  16.142 116.635 -0.10 -0.00    +0.000 A 
DOCKED: ATOM      9  C   UNL     1      36.722  16.678 117.842 -0.10 -0.00    +0.000 A 
DOCKED: ATOM     10  C   UNL     1      37.625  16.972 118.873 -0.08 -0.00    +0.000 A 
DOCKED: ATOM     11  C   UNL     1      37.175  17.518 120.084 -0.10 -0.00    +0.000 A 
DOCKED: ATOM     12  CM  UNL     1      38.542  17.266 119.899 +0.00 -0.00    +0.000 AC
DOCKED: ATOM     13  CM  UNL     1      38.089  16.429 117.658 +0.00 -0.00    +0.000 AC
DOCKED: BRANCH   7  12
DOCKED: ATOM     14  C   UNL     1      39.040  15.303 115.142 -0.26 -0.00    +0.000 C 
DOCKED: BRANCH  12  13
DOCKED: ATOM     15  N   UNL     1      38.288  14.074 114.807 -0.34 -0.00    +0.000 N 
DOCKED: ATOM     16  H   UNL     1      38.772  13.749 113.969 -0.01 -0.00    +0.000 HD
DOCKED: BRANCH  13  15
DOCKED: ATOM     17  C   UNL     1      38.453  12.975 115.781 -0.54 -0.00    +0.000 C 
DOCKED: ATOM     18  C   UNL     1      39.316  11.820 115.266 -0.49 -0.00    +0.000 C 
DOCKED: ENDBRANCH  13  15
DOCKED: BRANCH  13  17
DOCKED: ATOM     19  C   UNL     1      36.909  14.253 114.286 -0.29 -0.00    +0.000 C 
DOCKED: ATOM     20  C   UNL     1      36.536  13.329 113.117 -0.33 -0.00    +0.000 C 
DOCKED: ENDBRANCH  13  17
DOCKED: ENDBRANCH  12  13
DOCKED: ENDBRANCH   7  12
DOCKED: ENDBRANCH   1   2
DOCKED: BRANCH   1  19
DOCKED: ATOM     21  O   UNL     1      37.405  17.396 123.360 -0.23 -0.00    +0.000 OA
DOCKED: BRANCH  19  21
DOCKED: ATOM     22  O   UNL     1      38.800  15.601 122.971 -0.36 -0.00    +0.000 OA
DOCKED: ATOM     23  C   UNL     1      37.624  16.044 123.082 -0.32 -0.00    +0.000 C 
DOCKED: ATOM     24  N   UNL     1      36.495  15.183 122.877 -0.37 -0.00    +0.000 N 
DOCKED: ATOM     25  H   UNL     1      35.600  15.596 122.855 -0.01 -0.00    +0.000 HD
DOCKED: BRANCH  22  24
DOCKED: ATOM     26  C   UNL     1      36.581  13.759 122.704 -0.43 -0.00    +0.000 A 
DOCKED: ATOM     27  C   UNL     1      36.018  12.913 123.670 -0.54 -0.00    +0.000 A 
DOCKED: ATOM     28  C   UNL     1      36.110  11.525 123.541 -0.61 -0.00    +0.000 A 
DOCKED: ATOM     29  C   UNL     1      36.790  10.953 122.450 -0.56 -0.00    +0.000 A 
DOCKED: ATOM     30  C   UNL     1      37.361  11.804 121.486 -0.40 -0.00    +0.000 A 
DOCKED: ATOM     31  C   UNL     1      37.267  13.193 121.617 -0.42 -0.00    +0.000 A 
DOCKED: ATOM     32  CM  UNL     1      36.688  12.358 122.578 +0.00 -0.00    +0.000 AC
DOCKED: BRANCH  27  30
DOCKED: ATOM     33  C   UNL     1      36.902   9.481 122.296 -0.66 -0.00    +0.000 C 
DOCKED: ATOM     34  N   UNL     1      37.068   8.622 123.429 -0.66 -0.00    +0.000 N 
DOCKED: ATOM     35  O   UNL     1      37.063   7.279 123.271 -2.30 -0.00    +0.000 OA
DOCKED: ATOM     36  O   UNL     1      36.863   8.972 121.142 -2.66 -0.00    +0.000 OA
DOCKED: ATOM     37  H   UNL     1      37.187   9.010 124.325 -0.56 -0.00    +0.000 HD
DOCKED: ENDBRANCH  27  30
DOCKED: ENDBRANCH  22  24
DOCKED: ENDBRANCH  19  21
DOCKED: ENDBRANCH   1  19
DOCKED: TORSDOF 9DOCKED: TER
DOCKED: ENDMDL
________________________________________________________________________________


	BEGINNING GENETIC ALGORITHM DOCKING 80 of 100
Run: 80 Seed: 33717001 384448739 [ Run 80 of 100 GA/GALS ]
Beginning LAMARCKIAN GENETIC ALGORITHM (LGA), with a maximum of 2500000 energy evaluations.

Final-Value: -17.466


	FINAL GENETIC ALGORITHM DOCKED STATE
	_______________________________________________


Detailed state:  trans 38.019 17.287 121.683 quatxyzw -0.885075 0.080150 -0.442337 0.120645 center 1.619 0.086 0.013 ntor 9 169.6972 168.4884 -9.1018 -55.6294 173.8246 -109.6612 -180.0000 116.3081 -134.7821
State:	 38.019  17.287 121.683  -0.892  0.081 -0.446 166.141    169.70  168.49   -9.10  -55.63  173.82 -109.66 -180.00  116.31 -134.78

DOCKED: MODEL       80
DOCKED: USER    Run = 80
DOCKED: USER    DPF = ligand_dock.biased.dpf
DOCKED: USER  
DOCKED: USER    Estimated Free Energy of Binding    =  -12.97 kcal/mol  [=(1)+(2)+(3)-(4)]
DOCKED: USER    Estimated Inhibition Constant, Ki   =  312.14 pM (picomolar)  [Temperature = 298.15 K]
DOCKED: USER    
DOCKED: USER    (1) Final Intermolecular Energy     =  -15.65 kcal/mol
DOCKED: USER        vdW + Hbond + desolv Energy     =  -15.65 kcal/mol
DOCKED: USER        Electrostatic Energy            =   +0.00 kcal/mol
DOCKED: USER    (2) Final Total Internal Energy     =   -1.81 kcal/mol
DOCKED: USER    (3) Torsional Free Energy           =   +2.68 kcal/mol
DOCKED: USER    (4) Unbound System's Energy  [=(2)] =   -1.81 kcal/mol
DOCKED: USER    
DOCKED: USER    
DOCKED: USER    NEWDPF move ligand.dum.pdbqt
DOCKED: USER    NEWDPF about 1.619000 0.086000 0.013000
DOCKED: USER    NEWDPF tran0 38.019024 17.286928 121.683358
DOCKED: USER    NEWDPF quaternion0 -0.885075 0.080150 -0.442337 0.120645
DOCKED: USER    NEWDPF axisangle0 -0.891588 0.080740 -0.445592 166.141393
DOCKED: USER    NEWDPF quat0 -0.891588 0.080740 -0.445592 166.141393
DOCKED: USER    NEWDPF dihe0 169.70 168.49 -9.10 -55.63 173.82 -109.66 -180.00 116.31 -134.78 
DOCKED: USER  keepresnum = 1 
DOCKED: USER  
DOCKED: REMARK  Name = 
DOCKED: REMARK  11 active torsions:
DOCKED: REMARK  status: ('A' for Active; 'I' for Inactive)
DOCKED: REMARK    1  A    between atoms: C_2  and  O_3
DOCKED: REMARK    2  A    between atoms: O_3  and  C_4
DOCKED: REMARK    3  A    between atoms: C_4  and  C_5
DOCKED: REMARK    4  A    between atoms: C_10  and  C_11
DOCKED: REMARK    5  A    between atoms: C_11  and  N_12
DOCKED: REMARK    6  A    between atoms: N_12  and  C_13
DOCKED: REMARK    7  A    between atoms: N_12  and  C_15
DOCKED: REMARK    8  A    between atoms: C_13  and  C_14
DOCKED: REMARK    9  A    between atoms: C_15  and  C_16
DOCKED: REMARK   10  A    between atoms: N_21  and  C_22
DOCKED: REMARK   11  A    between atoms: C_25  and  C_26
DOCKED: REMARK                            x       y       z     vdW  Elec       q    Type
DOCKED: REMARK                         _______ _______ _______ _____ _____    ______ ____
DOCKED: USER                              x       y       z     vdW  Elec       q    Type
DOCKED: USER                           _______ _______ _______ _____ _____    ______ ____
DOCKED: ROOT
DOCKED: ATOM      1  C   UNL     1      36.522  18.254 123.284 -0.21 -0.00    +0.000 C 
DOCKED: ENDROOT
DOCKED: BRANCH   1   2
DOCKED: ATOM      2  C   UNL     1      35.755  18.172 121.995 -0.23 -0.00    +0.000 A 
DOCKED: ATOM      3  C   UNL     1      36.429  18.089 120.767 -0.14 -0.00    +0.000 A 
DOCKED: ATOM      4  C   UNL     1      35.711  18.031 119.568 -0.15 -0.00    +0.000 A 
DOCKED: ATOM      5  C   UNL     1      34.310  18.070 119.582 -0.20 -0.00    +0.000 A 
DOCKED: ATOM      6  C   UNL     1      33.581  18.022 118.384 -0.17 -0.00    +0.000 A 
DOCKED: ATOM      7  C   UNL     1      32.179  18.097 118.399 -0.23 -0.00    +0.000 A 
DOCKED: ATOM      8  C   UNL     1      31.507  18.177 119.629 -0.42 -0.00    +0.000 A 
DOCKED: ATOM      9  C   UNL     1      32.224  18.217 120.829 -0.32 -0.00    +0.000 A 
DOCKED: ATOM     10  C   UNL     1      33.625  18.170 120.816 -0.31 -0.00    +0.000 A 
DOCKED: ATOM     11  C   UNL     1      34.353  18.218 122.015 -0.23 -0.00    +0.000 A 
DOCKED: ATOM     12  CM  UNL     1      35.031  18.125 120.790 +0.00 -0.00    +0.000 AC
DOCKED: ATOM     13  CM  UNL     1      32.904  18.126 119.606 +0.00 -0.00    +0.000 AC
DOCKED: BRANCH   7  12
DOCKED: ATOM     14  C   UNL     1      31.403  18.033 117.108 -0.18 -0.00    +0.000 C 
DOCKED: BRANCH  12  13
DOCKED: ATOM     15  N   UNL     1      30.430  16.920 117.129 -0.22 -0.00    +0.000 N 
DOCKED: ATOM     16  H   UNL     1      30.707  16.409 117.968 -0.01 -0.00    +0.000 HD
DOCKED: BRANCH  13  15
DOCKED: ATOM     17  C   UNL     1      29.035  17.336 117.392 -0.30 -0.00    +0.000 C 
DOCKED: ATOM     18  C   UNL     1      28.446  16.739 118.672 -0.52 -0.00    +0.000 C 
DOCKED: ENDBRANCH  13  15
DOCKED: BRANCH  13  17
DOCKED: ATOM     19  C   UNL     1      30.590  15.869 116.091 -0.29 -0.00    +0.000 C 
DOCKED: ATOM     20  C   UNL     1      30.664  14.435 116.632 -0.44 -0.00    +0.000 C 
DOCKED: ENDBRANCH  13  17
DOCKED: ENDBRANCH  12  13
DOCKED: ENDBRANCH   7  12
DOCKED: ENDBRANCH   1   2
DOCKED: BRANCH   1  19
DOCKED: ATOM     21  O   UNL     1      37.790  17.629 123.116 -0.19 -0.00    +0.000 OA
DOCKED: BRANCH  19  21
DOCKED: ATOM     22  O   UNL     1      39.082  15.752 122.755 -0.34 -0.00    +0.000 OA
DOCKED: ATOM     23  C   UNL     1      37.932  16.259 122.878 -0.28 -0.00    +0.000 C 
DOCKED: ATOM     24  N   UNL     1      36.756  15.452 122.729 -0.33 -0.00    +0.000 N 
DOCKED: ATOM     25  H   UNL     1      35.884  15.908 122.714 -0.01 -0.00    +0.000 HD
DOCKED: BRANCH  22  24
DOCKED: ATOM     26  C   UNL     1      36.766  14.020 122.602 -0.41 -0.00    +0.000 A 
DOCKED: ATOM     27  C   UNL     1      36.373  13.230 123.691 -0.52 -0.00    +0.000 A 
DOCKED: ATOM     28  C   UNL     1      36.398  11.835 123.604 -0.63 -0.00    +0.000 A 
DOCKED: ATOM     29  C   UNL     1      36.840  11.201 122.428 -0.55 -0.00    +0.000 A 
DOCKED: ATOM     30  C   UNL     1      37.240  11.996 121.339 -0.46 -0.00    +0.000 A 
DOCKED: ATOM     31  C   UNL     1      37.214  13.391 121.428 -0.40 -0.00    +0.000 A 
DOCKED: ATOM     32  CM  UNL     1      36.806  12.612 122.515 +0.00 -0.00    +0.000 AC
DOCKED: BRANCH  27  30
DOCKED: ATOM     33  C   UNL     1      36.876   9.721 122.317 -0.65 -0.00    +0.000 C 
DOCKED: ATOM     34  N   UNL     1      37.123   8.892 123.458 -0.59 -0.00    +0.000 N 
DOCKED: ATOM     35  O   UNL     1      37.048   7.546 123.349 -2.52 -0.00    +0.000 OA
DOCKED: ATOM     36  O   UNL     1      36.699   9.178 121.192 -2.63 -0.00    +0.000 OA
DOCKED: ATOM     37  H   UNL     1      37.348   9.303 124.323 -0.61 -0.00    +0.000 HD
DOCKED: ENDBRANCH  27  30
DOCKED: ENDBRANCH  22  24
DOCKED: ENDBRANCH  19  21
DOCKED: ENDBRANCH   1  19
DOCKED: TORSDOF 9DOCKED: TER
DOCKED: ENDMDL
________________________________________________________________________________


	BEGINNING GENETIC ALGORITHM DOCKING 81 of 100
Run: 81 Seed: 2060184910 1709049942 [ Run 81 of 100 GA/GALS ]
Beginning LAMARCKIAN GENETIC ALGORITHM (LGA), with a maximum of 2500000 energy evaluations.

Final-Value: -17.929


	FINAL GENETIC ALGORITHM DOCKED STATE
	_______________________________________________


Detailed state:  trans 37.027 16.550 122.818 quatxyzw -0.511451 -0.472339 0.203304 0.688463 center 1.619 0.086 0.013 ntor 9 -74.1084 -41.9186 -8.0389 6.2117 13.9712 -2.8694 80.5871 -116.5264 -179.4968
State:	 37.027  16.550 122.818  -0.705 -0.651  0.280 92.983    -74.11  -41.92   -8.04    6.21   13.97   -2.87   80.59 -116.53 -179.50

DOCKED: MODEL       81
DOCKED: USER    Run = 81
DOCKED: USER    DPF = ligand_dock.biased.dpf
DOCKED: USER  
DOCKED: USER    Estimated Free Energy of Binding    =  -13.52 kcal/mol  [=(1)+(2)+(3)-(4)]
DOCKED: USER    Estimated Inhibition Constant, Ki   =  123.19 pM (picomolar)  [Temperature = 298.15 K]
DOCKED: USER    
DOCKED: USER    (1) Final Intermolecular Energy     =  -16.20 kcal/mol
DOCKED: USER        vdW + Hbond + desolv Energy     =  -16.20 kcal/mol
DOCKED: USER        Electrostatic Energy            =   +0.00 kcal/mol
DOCKED: USER    (2) Final Total Internal Energy     =   -1.73 kcal/mol
DOCKED: USER    (3) Torsional Free Energy           =   +2.68 kcal/mol
DOCKED: USER    (4) Unbound System's Energy  [=(2)] =   -1.73 kcal/mol
DOCKED: USER    
DOCKED: USER    
DOCKED: USER    NEWDPF move ligand.dum.pdbqt
DOCKED: USER    NEWDPF about 1.619000 0.086000 0.013000
DOCKED: USER    NEWDPF tran0 37.027014 16.550412 122.817964
DOCKED: USER    NEWDPF quaternion0 -0.511451 -0.472339 0.203304 0.688463
DOCKED: USER    NEWDPF axisangle0 -0.705186 -0.651258 0.280315 92.982805
DOCKED: USER    NEWDPF quat0 -0.705186 -0.651258 0.280315 92.982805
DOCKED: USER    NEWDPF dihe0 -74.11 -41.92 -8.04 6.21 13.97 -2.87 80.59 -116.53 -179.50 
DOCKED: USER  keepresnum = 1 
DOCKED: USER  
DOCKED: REMARK  Name = 
DOCKED: REMARK  11 active torsions:
DOCKED: REMARK  status: ('A' for Active; 'I' for Inactive)
DOCKED: REMARK    1  A    between atoms: C_2  and  O_3
DOCKED: REMARK    2  A    between atoms: O_3  and  C_4
DOCKED: REMARK    3  A    between atoms: C_4  and  C_5
DOCKED: REMARK    4  A    between atoms: C_10  and  C_11
DOCKED: REMARK    5  A    between atoms: C_11  and  N_12
DOCKED: REMARK    6  A    between atoms: N_12  and  C_13
DOCKED: REMARK    7  A    between atoms: N_12  and  C_15
DOCKED: REMARK    8  A    between atoms: C_13  and  C_14
DOCKED: REMARK    9  A    between atoms: C_15  and  C_16
DOCKED: REMARK   10  A    between atoms: N_21  and  C_22
DOCKED: REMARK   11  A    between atoms: C_25  and  C_26
DOCKED: REMARK                            x       y       z     vdW  Elec       q    Type
DOCKED: REMARK                         _______ _______ _______ _____ _____    ______ ____
DOCKED: USER                              x       y       z     vdW  Elec       q    Type
DOCKED: USER                           _______ _______ _______ _____ _____    ______ ____
DOCKED: ROOT
DOCKED: ATOM      1  C   UNL     1      35.909  18.597 122.272 -0.23 -0.00    +0.000 C 
DOCKED: ENDROOT
DOCKED: BRANCH   1   2
DOCKED: ATOM      2  C   UNL     1      35.355  18.163 123.598 -0.27 -0.00    +0.000 A 
DOCKED: ATOM      3  C   UNL     1      34.583  16.996 123.702 -0.41 -0.00    +0.000 A 
DOCKED: ATOM      4  C   UNL     1      34.054  16.605 124.936 -0.42 -0.00    +0.000 A 
DOCKED: ATOM      5  C   UNL     1      34.279  17.384 126.080 -0.32 -0.00    +0.000 A 
DOCKED: ATOM      6  C   UNL     1      33.744  17.005 127.320 -0.32 -0.00    +0.000 A 
DOCKED: ATOM      7  C   UNL     1      33.942  17.806 128.456 -0.20 -0.00    +0.000 A 
DOCKED: ATOM      8  C   UNL     1      34.718  18.972 128.351 -0.11 -0.00    +0.000 A 
DOCKED: ATOM      9  C   UNL     1      35.261  19.354 127.121 -0.13 -0.00    +0.000 A 
DOCKED: ATOM     10  C   UNL     1      35.044  18.570 125.979 -0.22 -0.00    +0.000 A 
DOCKED: ATOM     11  C   UNL     1      35.578  18.951 124.738 -0.21 -0.00    +0.000 A 
DOCKED: ATOM     12  CM  UNL     1      34.815  17.778 124.839 -0.47 -0.00    +0.000 AC
DOCKED: ATOM     13  CM  UNL     1      34.498  18.182 127.218 -0.01 -0.00    +0.000 AC
DOCKED: BRANCH   7  12
DOCKED: ATOM     14  C   UNL     1      33.374  17.386 129.788 -0.24 -0.00    +0.000 C 
DOCKED: BRANCH  12  13
DOCKED: ATOM     15  N   UNL     1      32.051  16.745 129.621 -0.36 -0.00    +0.000 N 
DOCKED: ATOM     16  H   UNL     1      32.243  16.040 128.908 -0.20 -0.00    +0.000 HD
DOCKED: BRANCH  13  15
DOCKED: ATOM     17  C   UNL     1      31.597  15.971 130.796 -0.15 -0.00    +0.000 C 
DOCKED: ATOM     18  C   UNL     1      32.608  15.944 131.944 -0.31 -0.00    +0.000 C 
DOCKED: ENDBRANCH  13  15
DOCKED: BRANCH  13  17
DOCKED: ATOM     19  C   UNL     1      30.997  17.548 128.949 -0.43 -0.00    +0.000 C 
DOCKED: ATOM     20  C   UNL     1      30.243  18.520 129.866 -0.34 -0.00    +0.000 C 
DOCKED: ENDBRANCH  13  17
DOCKED: ENDBRANCH  12  13
DOCKED: ENDBRANCH   7  12
DOCKED: ENDBRANCH   1   2
DOCKED: BRANCH   1  19
DOCKED: ATOM     21  O   UNL     1      36.960  17.716 121.891 -0.15 -0.00    +0.000 OA
DOCKED: BRANCH  19  21
DOCKED: ATOM     22  O   UNL     1      36.302  15.938 120.578 -0.22 -0.00    +0.000 OA
DOCKED: ATOM     23  C   UNL     1      36.763  16.349 121.679 -0.23 -0.00    +0.000 C 
DOCKED: ATOM     24  N   UNL     1      37.045  15.431 122.744 -0.33 -0.00    +0.000 N 
DOCKED: ATOM     25  H   UNL     1      37.288  15.805 123.622 -0.02 -0.00    +0.000 HD
DOCKED: BRANCH  22  24
DOCKED: ATOM     26  C   UNL     1      36.999  14.000 122.614 -0.43 -0.00    +0.000 A 
DOCKED: ATOM     27  C   UNL     1      36.620  13.222 123.718 -0.49 -0.00    +0.000 A 
DOCKED: ATOM     28  C   UNL     1      36.592  11.828 123.628 -0.62 -0.00    +0.000 A 
DOCKED: ATOM     29  C   UNL     1      36.964  11.181 122.435 -0.52 -0.00    +0.000 A 
DOCKED: ATOM     30  C   UNL     1      37.350  11.964 121.332 -0.44 -0.00    +0.000 A 
DOCKED: ATOM     31  C   UNL     1      37.377  13.358 121.424 -0.41 -0.00    +0.000 A 
DOCKED: ATOM     32  CM  UNL     1      36.984  12.592 122.525 +0.00 -0.00    +0.000 AC
DOCKED: BRANCH  27  30
DOCKED: ATOM     33  C   UNL     1      36.943   9.701 122.321 -0.63 -0.00    +0.000 C 
DOCKED: ATOM     34  N   UNL     1      37.182   8.861 123.455 -0.58 -0.00    +0.000 N 
DOCKED: ATOM     35  O   UNL     1      37.056   7.518 123.346 -2.51 -0.00    +0.000 OA
DOCKED: ATOM     36  O   UNL     1      36.723   9.167 121.199 -2.64 -0.00    +0.000 OA
DOCKED: ATOM     37  H   UNL     1      37.441   9.261 124.316 -0.64 -0.00    +0.000 HD
DOCKED: ENDBRANCH  27  30
DOCKED: ENDBRANCH  22  24
DOCKED: ENDBRANCH  19  21
DOCKED: ENDBRANCH   1  19
DOCKED: TORSDOF 9DOCKED: TER
DOCKED: ENDMDL
________________________________________________________________________________


	BEGINNING GENETIC ALGORITHM DOCKING 82 of 100
Run: 82 Seed: 1718744251 8780978 [ Run 82 of 100 GA/GALS ]
Beginning LAMARCKIAN GENETIC ALGORITHM (LGA), with a maximum of 2500000 energy evaluations.

Final-Value: -18.211


	FINAL GENETIC ALGORITHM DOCKED STATE
	_______________________________________________


Detailed state:  trans 37.347 16.442 122.175 quatxyzw -0.517389 -0.411387 0.180287 0.728400 center 1.619 0.086 0.013 ntor 9 -70.3042 -155.6153 -177.2627 8.3534 -18.0883 154.0935 85.9015 -120.8743 178.7842
State:	 37.347  16.442 122.175  -0.755 -0.600  0.263 86.495    -70.30 -155.62 -177.26    8.35  -18.09  154.09   85.90 -120.87  178.78

DOCKED: MODEL       82
DOCKED: USER    Run = 82
DOCKED: USER    DPF = ligand_dock.biased.dpf
DOCKED: USER  
DOCKED: USER    Estimated Free Energy of Binding    =  -13.88 kcal/mol  [=(1)+(2)+(3)-(4)]
DOCKED: USER    Estimated Inhibition Constant, Ki   =   67.19 pM (picomolar)  [Temperature = 298.15 K]
DOCKED: USER    
DOCKED: USER    (1) Final Intermolecular Energy     =  -16.56 kcal/mol
DOCKED: USER        vdW + Hbond + desolv Energy     =  -16.56 kcal/mol
DOCKED: USER        Electrostatic Energy            =   +0.00 kcal/mol
DOCKED: USER    (2) Final Total Internal Energy     =   -1.65 kcal/mol
DOCKED: USER    (3) Torsional Free Energy           =   +2.68 kcal/mol
DOCKED: USER    (4) Unbound System's Energy  [=(2)] =   -1.65 kcal/mol
DOCKED: USER    
DOCKED: USER    
DOCKED: USER    NEWDPF move ligand.dum.pdbqt
DOCKED: USER    NEWDPF about 1.619000 0.086000 0.013000
DOCKED: USER    NEWDPF tran0 37.346877 16.442196 122.174554
DOCKED: USER    NEWDPF quaternion0 -0.517389 -0.411387 0.180287 0.728400
DOCKED: USER    NEWDPF axisangle0 -0.755144 -0.600431 0.263135 86.495188
DOCKED: USER    NEWDPF quat0 -0.755144 -0.600431 0.263135 86.495188
DOCKED: USER    NEWDPF dihe0 -70.30 -155.62 -177.26 8.35 -18.09 154.09 85.90 -120.87 178.78 
DOCKED: USER  keepresnum = 1 
DOCKED: USER  
DOCKED: REMARK  Name = 
DOCKED: REMARK  11 active torsions:
DOCKED: REMARK  status: ('A' for Active; 'I' for Inactive)
DOCKED: REMARK    1  A    between atoms: C_2  and  O_3
DOCKED: REMARK    2  A    between atoms: O_3  and  C_4
DOCKED: REMARK    3  A    between atoms: C_4  and  C_5
DOCKED: REMARK    4  A    between atoms: C_10  and  C_11
DOCKED: REMARK    5  A    between atoms: C_11  and  N_12
DOCKED: REMARK    6  A    between atoms: N_12  and  C_13
DOCKED: REMARK    7  A    between atoms: N_12  and  C_15
DOCKED: REMARK    8  A    between atoms: C_13  and  C_14
DOCKED: REMARK    9  A    between atoms: C_15  and  C_16
DOCKED: REMARK   10  A    between atoms: N_21  and  C_22
DOCKED: REMARK   11  A    between atoms: C_25  and  C_26
DOCKED: REMARK                            x       y       z     vdW  Elec       q    Type
DOCKED: REMARK                         _______ _______ _______ _____ _____    ______ ____
DOCKED: USER                              x       y       z     vdW  Elec       q    Type
DOCKED: USER                           _______ _______ _______ _____ _____    ______ ____
DOCKED: ROOT
DOCKED: ATOM      1  C   UNL     1      36.368  18.487 121.400 -0.18 -0.00    +0.000 C 
DOCKED: ENDROOT
DOCKED: BRANCH   1   2
DOCKED: ATOM      2  C   UNL     1      35.615  18.111 122.644 -0.24 -0.00    +0.000 A 
DOCKED: ATOM      3  C   UNL     1      34.782  16.983 122.662 -0.34 -0.00    +0.000 A 
DOCKED: ATOM      4  C   UNL     1      34.069  16.647 123.817 -0.37 -0.00    +0.000 A 
DOCKED: ATOM      5  C   UNL     1      34.170  17.445 124.966 -0.38 -0.00    +0.000 A 
DOCKED: ATOM      6  C   UNL     1      33.451  17.122 126.126 -0.24 -0.00    +0.000 A 
DOCKED: ATOM      7  C   UNL     1      33.527  17.942 127.263 -0.27 -0.00    +0.000 A 
DOCKED: ATOM      8  C   UNL     1      34.364  19.070 127.245 -0.16 -0.00    +0.000 A 
DOCKED: ATOM      9  C   UNL     1      35.091  19.395 126.095 -0.18 -0.00    +0.000 A 
DOCKED: ATOM     10  C   UNL     1      34.997  18.593 124.949 -0.26 -0.00    +0.000 A 
DOCKED: ATOM     11  C   UNL     1      35.715  18.917 123.789 -0.21 -0.00    +0.000 A 
DOCKED: ATOM     12  CM  UNL     1      34.891  17.782 123.804 -0.17 -0.00    +0.000 AC
DOCKED: ATOM     13  CM  UNL     1      34.267  18.261 126.108 -0.14 -0.00    +0.000 AC
DOCKED: BRANCH   7  12
DOCKED: ATOM     14  C   UNL     1      32.761  17.582 128.510 -0.31 -0.00    +0.000 C 
DOCKED: BRANCH  12  13
DOCKED: ATOM     15  N   UNL     1      31.304  17.735 128.300 -0.34 -0.00    +0.000 N 
DOCKED: ATOM     16  H   UNL     1      31.148  17.171 127.464 -0.51 -0.00    +0.000 HD
DOCKED: BRANCH  13  15
DOCKED: ATOM     17  C   UNL     1      30.469  17.096 129.339 -0.43 -0.00    +0.000 C 
DOCKED: ATOM     18  C   UNL     1      31.277  16.437 130.460 -0.36 -0.00    +0.000 C 
DOCKED: ENDBRANCH  13  15
DOCKED: BRANCH  13  17
DOCKED: ATOM     19  C   UNL     1      30.829  19.064 127.838 -0.31 -0.00    +0.000 C 
DOCKED: ATOM     20  C   UNL     1      29.414  19.073 127.244 -0.46 -0.00    +0.000 C 
DOCKED: ENDBRANCH  13  17
DOCKED: ENDBRANCH  12  13
DOCKED: ENDBRANCH   7  12
DOCKED: ENDBRANCH   1   2
DOCKED: BRANCH   1  19
DOCKED: ATOM     21  O   UNL     1      37.443  17.574 121.209 -0.12 -0.00    +0.000 OA
DOCKED: BRANCH  19  21
DOCKED: ATOM     22  O   UNL     1      37.001  15.670 119.985 -0.22 -0.00    +0.000 OA
DOCKED: ATOM     23  C   UNL     1      37.255  16.193 121.105 -0.20 -0.00    +0.000 C 
DOCKED: ATOM     24  N   UNL     1      37.308  15.391 122.293 -0.29 -0.00    +0.000 N 
DOCKED: ATOM     25  H   UNL     1      37.390  15.855 123.157 -0.01 -0.00    +0.000 HD
DOCKED: BRANCH  22  24
DOCKED: ATOM     26  C   UNL     1      37.251  13.955 122.305 -0.41 -0.00    +0.000 A 
DOCKED: ATOM     27  C   UNL     1      37.327  13.253 121.094 -0.41 -0.00    +0.000 A 
DOCKED: ATOM     28  C   UNL     1      37.248  11.858 121.074 -0.45 -0.00    +0.000 A 
DOCKED: ATOM     29  C   UNL     1      37.067  11.136 122.268 -0.49 -0.00    +0.000 A 
DOCKED: ATOM     30  C   UNL     1      36.983  11.843 123.481 -0.60 -0.00    +0.000 A 
DOCKED: ATOM     31  C   UNL     1      37.064  13.239 123.499 -0.49 -0.00    +0.000 A 
DOCKED: ATOM     32  CM  UNL     1      37.156  12.547 122.287 +0.00 -0.00    +0.000 AC
DOCKED: BRANCH  27  30
DOCKED: ATOM     33  C   UNL     1      36.977   9.654 122.268 -0.62 -0.00    +0.000 C 
DOCKED: ATOM     34  N   UNL     1      37.208   8.892 123.458 -0.56 -0.00    +0.000 N 
DOCKED: ATOM     35  O   UNL     1      37.019   7.552 123.454 -2.55 -0.00    +0.000 OA
DOCKED: ATOM     36  O   UNL     1      36.706   9.048 121.195 -2.63 -0.00    +0.000 OA
DOCKED: ATOM     37  H   UNL     1      37.505   9.344 124.280 -0.64 -0.00    +0.000 HD
DOCKED: ENDBRANCH  27  30
DOCKED: ENDBRANCH  22  24
DOCKED: ENDBRANCH  19  21
DOCKED: ENDBRANCH   1  19
DOCKED: TORSDOF 9DOCKED: TER
DOCKED: ENDMDL
________________________________________________________________________________


	BEGINNING GENETIC ALGORITHM DOCKING 83 of 100
Run: 83 Seed: 415015008 1761957594 [ Run 83 of 100 GA/GALS ]
Beginning LAMARCKIAN GENETIC ALGORITHM (LGA), with a maximum of 2500000 energy evaluations.

Final-Value: -17.850


	FINAL GENETIC ALGORITHM DOCKED STATE
	_______________________________________________


Detailed state:  trans 37.779 16.518 123.410 quatxyzw -0.435328 -0.412824 0.085132 0.795499 center 1.619 0.086 0.013 ntor 9 73.2132 158.6671 -13.1873 -175.9215 147.1797 -146.5414 -143.2622 -122.6155 169.0536
State:	 37.779  16.518 123.410  -0.718 -0.681  0.140 74.595     73.21  158.67  -13.19 -175.92  147.18 -146.54 -143.26 -122.62  169.05

DOCKED: MODEL       83
DOCKED: USER    Run = 83
DOCKED: USER    DPF = ligand_dock.biased.dpf
DOCKED: USER  
DOCKED: USER    Estimated Free Energy of Binding    =  -13.32 kcal/mol  [=(1)+(2)+(3)-(4)]
DOCKED: USER    Estimated Inhibition Constant, Ki   =  172.01 pM (picomolar)  [Temperature = 298.15 K]
DOCKED: USER    
DOCKED: USER    (1) Final Intermolecular Energy     =  -16.01 kcal/mol
DOCKED: USER        vdW + Hbond + desolv Energy     =  -16.01 kcal/mol
DOCKED: USER        Electrostatic Energy            =   +0.00 kcal/mol
DOCKED: USER    (2) Final Total Internal Energy     =   -1.84 kcal/mol
DOCKED: USER    (3) Torsional Free Energy           =   +2.68 kcal/mol
DOCKED: USER    (4) Unbound System's Energy  [=(2)] =   -1.84 kcal/mol
DOCKED: USER    
DOCKED: USER    
DOCKED: USER    NEWDPF move ligand.dum.pdbqt
DOCKED: USER    NEWDPF about 1.619000 0.086000 0.013000
DOCKED: USER    NEWDPF tran0 37.779062 16.517985 123.409692
DOCKED: USER    NEWDPF quaternion0 -0.435328 -0.412824 0.085132 0.795499
DOCKED: USER    NEWDPF axisangle0 -0.718416 -0.681278 0.140493 74.595245
DOCKED: USER    NEWDPF quat0 -0.718416 -0.681278 0.140493 74.595245
DOCKED: USER    NEWDPF dihe0 73.21 158.67 -13.19 -175.92 147.18 -146.54 -143.26 -122.62 169.05 
DOCKED: USER  keepresnum = 1 
DOCKED: USER  
DOCKED: REMARK  Name = 
DOCKED: REMARK  11 active torsions:
DOCKED: REMARK  status: ('A' for Active; 'I' for Inactive)
DOCKED: REMARK    1  A    between atoms: C_2  and  O_3
DOCKED: REMARK    2  A    between atoms: O_3  and  C_4
DOCKED: REMARK    3  A    between atoms: C_4  and  C_5
DOCKED: REMARK    4  A    between atoms: C_10  and  C_11
DOCKED: REMARK    5  A    between atoms: C_11  and  N_12
DOCKED: REMARK    6  A    between atoms: N_12  and  C_13
DOCKED: REMARK    7  A    between atoms: N_12  and  C_15
DOCKED: REMARK    8  A    between atoms: C_13  and  C_14
DOCKED: REMARK    9  A    between atoms: C_15  and  C_16
DOCKED: REMARK   10  A    between atoms: N_21  and  C_22
DOCKED: REMARK   11  A    between atoms: C_25  and  C_26
DOCKED: REMARK                            x       y       z     vdW  Elec       q    Type
DOCKED: REMARK                         _______ _______ _______ _____ _____    ______ ____
DOCKED: USER                              x       y       z     vdW  Elec       q    Type
DOCKED: USER                           _______ _______ _______ _____ _____    ______ ____
DOCKED: ROOT
DOCKED: ATOM      1  C   UNL     1      36.482  18.190 122.288 -0.19 -0.00    +0.000 C 
DOCKED: ENDROOT
DOCKED: BRANCH   1   2
DOCKED: ATOM      2  C   UNL     1      35.672  17.767 123.480 -0.26 -0.00    +0.000 A 
DOCKED: ATOM      3  C   UNL     1      34.949  16.565 123.463 -0.40 -0.00    +0.000 A 
DOCKED: ATOM      4  C   UNL     1      34.183  16.184 124.569 -0.47 -0.00    +0.000 A 
DOCKED: ATOM      5  C   UNL     1      34.118  17.009 125.701 -0.38 -0.00    +0.000 A 
DOCKED: ATOM      6  C   UNL     1      33.344  16.640 126.812 -0.38 -0.00    +0.000 A 
DOCKED: ATOM      7  C   UNL     1      33.254  17.485 127.930 -0.30 -0.00    +0.000 A 
DOCKED: ATOM      8  C   UNL     1      33.981  18.686 127.946 -0.15 -0.00    +0.000 A 
DOCKED: ATOM      9  C   UNL     1      34.761  19.059 126.847 -0.17 -0.00    +0.000 A 
DOCKED: ATOM     10  C   UNL     1      34.833  18.230 125.719 -0.27 -0.00    +0.000 A 
DOCKED: ATOM     11  C   UNL     1      35.607  18.600 124.608 -0.23 -0.00    +0.000 A 
DOCKED: ATOM     12  CM  UNL     1      34.894  17.392 124.590 -0.38 -0.00    +0.000 AC
DOCKED: ATOM     13  CM  UNL     1      34.048  17.852 126.826 -0.03 -0.00    +0.000 AC
DOCKED: BRANCH   7  12
DOCKED: ATOM     14  C   UNL     1      32.429  17.075 129.123 -0.36 -0.00    +0.000 C 
DOCKED: BRANCH  12  13
DOCKED: ATOM     15  N   UNL     1      33.275  16.447 130.162 -0.26 -0.00    +0.000 N 
DOCKED: ATOM     16  H   UNL     1      32.755  15.595 130.376 -0.48 -0.00    +0.000 HD
DOCKED: BRANCH  13  15
DOCKED: ATOM     17  C   UNL     1      34.585  15.968 129.672 +0.16 -0.00    +0.000 C 
DOCKED: ATOM     18  C   UNL     1      35.714  16.109 130.696 -0.26 -0.00    +0.000 C 
DOCKED: ENDBRANCH  13  15
DOCKED: BRANCH  13  17
DOCKED: ATOM     19  C   UNL     1      33.301  17.105 131.494 -0.23 -0.00    +0.000 C 
DOCKED: ATOM     20  C   UNL     1      32.754  16.251 132.645 -0.12 -0.00    +0.000 C 
DOCKED: ENDBRANCH  13  17
DOCKED: ENDBRANCH  12  13
DOCKED: ENDBRANCH   7  12
DOCKED: ENDBRANCH   1   2
DOCKED: BRANCH   1  19
DOCKED: ATOM     21  O   UNL     1      37.749  17.544 122.328 -0.14 -0.00    +0.000 OA
DOCKED: BRANCH  19  21
DOCKED: ATOM     22  O   UNL     1      38.809  15.650 123.110 -0.36 -0.00    +0.000 OA
DOCKED: ATOM     23  C   UNL     1      37.888  16.155 122.411 -0.27 -0.00    +0.000 C 
DOCKED: ATOM     24  N   UNL     1      37.001  15.320 121.654 -0.25 -0.00    +0.000 N 
DOCKED: ATOM     25  H   UNL     1      36.377  15.758 121.031 -0.01 -0.00    +0.000 HD
DOCKED: BRANCH  22  24
DOCKED: ATOM     26  C   UNL     1      36.963  13.886 121.744 -0.31 -0.00    +0.000 A 
DOCKED: ATOM     27  C   UNL     1      36.498  13.284 122.922 -0.49 -0.00    +0.000 A 
DOCKED: ATOM     28  C   UNL     1      36.474  11.892 123.048 -0.61 -0.00    +0.000 A 
DOCKED: ATOM     29  C   UNL     1      36.938  11.073 122.002 -0.50 -0.00    +0.000 A 
DOCKED: ATOM     30  C   UNL     1      37.410  11.680 120.824 -0.43 -0.00    +0.000 A 
DOCKED: ATOM     31  C   UNL     1      37.432  13.072 120.701 -0.43 -0.00    +0.000 A 
DOCKED: ATOM     32  CM  UNL     1      36.953  12.481 121.873 +0.00 -0.00    +0.000 AC
DOCKED: BRANCH  27  30
DOCKED: ATOM     33  C   UNL     1      36.923   9.593 122.117 -0.64 -0.00    +0.000 C 
DOCKED: ATOM     34  N   UNL     1      37.179   8.938 123.364 -0.58 -0.00    +0.000 N 
DOCKED: ATOM     35  O   UNL     1      37.058   7.595 123.464 -2.60 -0.00    +0.000 OA
DOCKED: ATOM     36  O   UNL     1      36.693   8.892 121.093 -2.61 -0.00    +0.000 OA
DOCKED: ATOM     37  H   UNL     1      37.445   9.467 124.150 -0.61 -0.00    +0.000 HD
DOCKED: ENDBRANCH  27  30
DOCKED: ENDBRANCH  22  24
DOCKED: ENDBRANCH  19  21
DOCKED: ENDBRANCH   1  19
DOCKED: TORSDOF 9DOCKED: TER
DOCKED: ENDMDL
________________________________________________________________________________


	BEGINNING GENETIC ALGORITHM DOCKING 84 of 100
Run: 84 Seed: 641061692 1495692914 [ Run 84 of 100 GA/GALS ]
Beginning LAMARCKIAN GENETIC ALGORITHM (LGA), with a maximum of 2500000 energy evaluations.

Final-Value: -16.895


	FINAL GENETIC ALGORITHM DOCKED STATE
	_______________________________________________


Detailed state:  trans 36.916 16.806 122.663 quatxyzw 0.370013 0.556354 -0.220525 -0.710584 center 1.619 0.086 0.013 ntor 9 137.8602 174.0918 174.6486 -92.0074 131.4267 172.4988 96.6473 -103.5884 164.9429
State:	 36.916  16.806 122.663   0.526  0.791 -0.313 -89.435    137.86  174.09  174.65  -92.01  131.43  172.50   96.65 -103.59  164.94

DOCKED: MODEL       84
DOCKED: USER    Run = 84
DOCKED: USER    DPF = ligand_dock.biased.dpf
DOCKED: USER  
DOCKED: USER    Estimated Free Energy of Binding    =  -12.47 kcal/mol  [=(1)+(2)+(3)-(4)]
DOCKED: USER    Estimated Inhibition Constant, Ki   =  729.01 pM (picomolar)  [Temperature = 298.15 K]
DOCKED: USER    
DOCKED: USER    (1) Final Intermolecular Energy     =  -15.15 kcal/mol
DOCKED: USER        vdW + Hbond + desolv Energy     =  -15.15 kcal/mol
DOCKED: USER        Electrostatic Energy            =   +0.00 kcal/mol
DOCKED: USER    (2) Final Total Internal Energy     =   -1.75 kcal/mol
DOCKED: USER    (3) Torsional Free Energy           =   +2.68 kcal/mol
DOCKED: USER    (4) Unbound System's Energy  [=(2)] =   -1.75 kcal/mol
DOCKED: USER    
DOCKED: USER    
DOCKED: USER    NEWDPF move ligand.dum.pdbqt
DOCKED: USER    NEWDPF about 1.619000 0.086000 0.013000
DOCKED: USER    NEWDPF tran0 36.915701 16.806254 122.663355
DOCKED: USER    NEWDPF quaternion0 0.370013 0.556354 -0.220525 -0.710584
DOCKED: USER    NEWDPF axisangle0 0.525876 0.790711 -0.313418 -89.435110
DOCKED: USER    NEWDPF quat0 0.525876 0.790711 -0.313418 -89.435110
DOCKED: USER    NEWDPF dihe0 137.86 174.09 174.65 -92.01 131.43 172.50 96.65 -103.59 164.94 
DOCKED: USER  keepresnum = 1 
DOCKED: USER  
DOCKED: REMARK  Name = 
DOCKED: REMARK  11 active torsions:
DOCKED: REMARK  status: ('A' for Active; 'I' for Inactive)
DOCKED: REMARK    1  A    between atoms: C_2  and  O_3
DOCKED: REMARK    2  A    between atoms: O_3  and  C_4
DOCKED: REMARK    3  A    between atoms: C_4  and  C_5
DOCKED: REMARK    4  A    between atoms: C_10  and  C_11
DOCKED: REMARK    5  A    between atoms: C_11  and  N_12
DOCKED: REMARK    6  A    between atoms: N_12  and  C_13
DOCKED: REMARK    7  A    between atoms: N_12  and  C_15
DOCKED: REMARK    8  A    between atoms: C_13  and  C_14
DOCKED: REMARK    9  A    between atoms: C_15  and  C_16
DOCKED: REMARK   10  A    between atoms: N_21  and  C_22
DOCKED: REMARK   11  A    between atoms: C_25  and  C_26
DOCKED: REMARK                            x       y       z     vdW  Elec       q    Type
DOCKED: REMARK                         _______ _______ _______ _____ _____    ______ ____
DOCKED: USER                              x       y       z     vdW  Elec       q    Type
DOCKED: USER                           _______ _______ _______ _____ _____    ______ ____
DOCKED: ROOT
DOCKED: ATOM      1  C   UNL     1      35.309  18.446 121.979 -0.28 -0.00    +0.000 C 
DOCKED: ENDROOT
DOCKED: BRANCH   1   2
DOCKED: ATOM      2  C   UNL     1      35.064  18.210 123.442 -0.28 -0.00    +0.000 A 
DOCKED: ATOM      3  C   UNL     1      34.299  17.116 123.871 -0.39 -0.00    +0.000 A 
DOCKED: ATOM      4  C   UNL     1      34.059  16.911 125.234 -0.40 -0.00    +0.000 A 
DOCKED: ATOM      5  C   UNL     1      34.570  17.807 126.183 -0.27 -0.00    +0.000 A 
DOCKED: ATOM      6  C   UNL     1      34.327  17.614 127.552 -0.15 -0.00    +0.000 A 
DOCKED: ATOM      7  C   UNL     1      34.811  18.533 128.497 -0.13 -0.00    +0.000 A 
DOCKED: ATOM      8  C   UNL     1      35.580  19.625 128.066 -0.09 -0.00    +0.000 A 
DOCKED: ATOM      9  C   UNL     1      35.835  19.821 126.705 -0.12 -0.00    +0.000 A 
DOCKED: ATOM     10  C   UNL     1      35.331  18.921 125.756 -0.20 -0.00    +0.000 A 
DOCKED: ATOM     11  C   UNL     1      35.574  19.114 124.388 -0.21 -0.00    +0.000 A 
DOCKED: ATOM     12  CM  UNL     1      34.816  18.013 124.812 -0.44 -0.00    +0.000 AC
DOCKED: ATOM     13  CM  UNL     1      35.076  18.720 127.127 -0.01 -0.00    +0.000 AC
DOCKED: BRANCH   7  12
DOCKED: ATOM     14  C   UNL     1      34.555  18.313 129.967 -0.12 -0.00    +0.000 C 
DOCKED: BRANCH  12  13
DOCKED: ATOM     15  N   UNL     1      35.509  17.332 130.530 -0.16 -0.00    +0.000 N 
DOCKED: ATOM     16  H   UNL     1      35.480  16.583 129.838 -0.02 -0.00    +0.000 HD
DOCKED: BRANCH  13  15
DOCKED: ATOM     17  C   UNL     1      36.917  17.783 130.529 -0.17 -0.00    +0.000 C 
DOCKED: ATOM     18  C   UNL     1      37.929  16.642 130.399 -0.32 -0.00    +0.000 C 
DOCKED: ENDBRANCH  13  15
DOCKED: BRANCH  13  17
DOCKED: ATOM     19  C   UNL     1      35.080  16.605 131.752 -0.18 -0.00    +0.000 C 
DOCKED: ATOM     20  C   UNL     1      35.299  15.086 131.710 -0.31 -0.00    +0.000 C 
DOCKED: ENDBRANCH  13  17
DOCKED: ENDBRANCH  12  13
DOCKED: ENDBRANCH   7  12
DOCKED: ENDBRANCH   1   2
DOCKED: BRANCH   1  19
DOCKED: ATOM     21  O   UNL     1      36.460  17.714 121.572 -0.18 -0.00    +0.000 OA
DOCKED: BRANCH  19  21
DOCKED: ATOM     22  O   UNL     1      36.306  15.832 120.247 -0.21 -0.00    +0.000 OA
DOCKED: ATOM     23  C   UNL     1      36.452  16.327 121.398 -0.22 -0.00    +0.000 C 
DOCKED: ATOM     24  N   UNL     1      36.566  15.480 122.550 -0.31 -0.00    +0.000 N 
DOCKED: ATOM     25  H   UNL     1      36.559  15.908 123.438 -0.01 -0.00    +0.000 HD
DOCKED: BRANCH  22  24
DOCKED: ATOM     26  C   UNL     1      36.692  14.049 122.496 -0.39 -0.00    +0.000 A 
DOCKED: ATOM     27  C   UNL     1      37.273  13.452 121.368 -0.39 -0.00    +0.000 A 
DOCKED: ATOM     28  C   UNL     1      37.384  12.062 121.277 -0.45 -0.00    +0.000 A 
DOCKED: ATOM     29  C   UNL     1      36.894  11.238 122.307 -0.53 -0.00    +0.000 A 
DOCKED: ATOM     30  C   UNL     1      36.305  11.839 123.434 -0.63 -0.00    +0.000 A 
DOCKED: ATOM     31  C   UNL     1      36.196  13.230 123.523 -0.54 -0.00    +0.000 A 
DOCKED: ATOM     32  CM  UNL     1      36.790  12.645 122.401 +0.00 -0.00    +0.000 AC
DOCKED: BRANCH  27  30
DOCKED: ATOM     33  C   UNL     1      37.000   9.759 122.228 -0.60 -0.00    +0.000 C 
DOCKED: ATOM     34  N   UNL     1      37.070   8.951 123.408 -0.61 -0.00    +0.000 N 
DOCKED: ATOM     35  O   UNL     1      37.062   7.602 123.309 -2.55 -0.00    +0.000 OA
DOCKED: ATOM     36  O   UNL     1      37.044   9.199 121.098 -2.73 -0.00    +0.000 OA
DOCKED: ATOM     37  H   UNL     1      37.125   9.379 124.292 -0.56 -0.00    +0.000 HD
DOCKED: ENDBRANCH  27  30
DOCKED: ENDBRANCH  22  24
DOCKED: ENDBRANCH  19  21
DOCKED: ENDBRANCH   1  19
DOCKED: TORSDOF 9DOCKED: TER
DOCKED: ENDMDL
________________________________________________________________________________


	BEGINNING GENETIC ALGORITHM DOCKING 85 of 100
Run: 85 Seed: 843002617 215504731 [ Run 85 of 100 GA/GALS ]
Beginning LAMARCKIAN GENETIC ALGORITHM (LGA), with a maximum of 2500000 energy evaluations.

Final-Value: -16.242


	FINAL GENETIC ALGORITHM DOCKED STATE
	_______________________________________________


Detailed state:  trans 38.712 16.429 123.639 quatxyzw -0.071914 -0.366651 0.927290 -0.022997 center 1.619 0.086 0.013 ntor 9 -86.4592 -81.9286 -180.0000 9.8442 -3.2049 88.6856 15.6612 124.0012 -142.4840
State:	 38.712  16.429 123.639  -0.072 -0.367  0.928 -177.365    -86.46  -81.93 -180.00    9.84   -3.20   88.69   15.66  124.00 -142.48

DOCKED: MODEL       85
DOCKED: USER    Run = 85
DOCKED: USER    DPF = ligand_dock.biased.dpf
DOCKED: USER  
DOCKED: USER    Estimated Free Energy of Binding    =  -12.07 kcal/mol  [=(1)+(2)+(3)-(4)]
DOCKED: USER    Estimated Inhibition Constant, Ki   =    1.43 nM (nanomolar)  [Temperature = 298.15 K]
DOCKED: USER    
DOCKED: USER    (1) Final Intermolecular Energy     =  -14.75 kcal/mol
DOCKED: USER        vdW + Hbond + desolv Energy     =  -14.75 kcal/mol
DOCKED: USER        Electrostatic Energy            =   +0.00 kcal/mol
DOCKED: USER    (2) Final Total Internal Energy     =   -1.49 kcal/mol
DOCKED: USER    (3) Torsional Free Energy           =   +2.68 kcal/mol
DOCKED: USER    (4) Unbound System's Energy  [=(2)] =   -1.49 kcal/mol
DOCKED: USER    
DOCKED: USER    
DOCKED: USER    NEWDPF move ligand.dum.pdbqt
DOCKED: USER    NEWDPF about 1.619000 0.086000 0.013000
DOCKED: USER    NEWDPF tran0 38.711802 16.429180 123.638671
DOCKED: USER    NEWDPF quaternion0 -0.071914 -0.366651 0.927290 -0.022997
DOCKED: USER    NEWDPF axisangle0 -0.071933 -0.366748 0.927535 -177.364542
DOCKED: USER    NEWDPF quat0 -0.071933 -0.366748 0.927535 -177.364542
DOCKED: USER    NEWDPF dihe0 -86.46 -81.93 -180.00 9.84 -3.20 88.69 15.66 124.00 -142.48 
DOCKED: USER  keepresnum = 1 
DOCKED: USER  
DOCKED: REMARK  Name = 
DOCKED: REMARK  11 active torsions:
DOCKED: REMARK  status: ('A' for Active; 'I' for Inactive)
DOCKED: REMARK    1  A    between atoms: C_2  and  O_3
DOCKED: REMARK    2  A    between atoms: O_3  and  C_4
DOCKED: REMARK    3  A    between atoms: C_4  and  C_5
DOCKED: REMARK    4  A    between atoms: C_10  and  C_11
DOCKED: REMARK    5  A    between atoms: C_11  and  N_12
DOCKED: REMARK    6  A    between atoms: N_12  and  C_13
DOCKED: REMARK    7  A    between atoms: N_12  and  C_15
DOCKED: REMARK    8  A    between atoms: C_13  and  C_14
DOCKED: REMARK    9  A    between atoms: C_15  and  C_16
DOCKED: REMARK   10  A    between atoms: N_21  and  C_22
DOCKED: REMARK   11  A    between atoms: C_25  and  C_26
DOCKED: REMARK                            x       y       z     vdW  Elec       q    Type
DOCKED: REMARK                         _______ _______ _______ _____ _____    ______ ____
DOCKED: USER                              x       y       z     vdW  Elec       q    Type
DOCKED: USER                           _______ _______ _______ _____ _____    ______ ____
DOCKED: ROOT
DOCKED: ATOM      1  C   UNL     1      38.707  18.289 122.129 -0.10 -0.00    +0.000 C 
DOCKED: ENDROOT
DOCKED: BRANCH   1   2
DOCKED: ATOM      2  C   UNL     1      40.151  17.960 122.377 -0.12 -0.00    +0.000 A 
DOCKED: ATOM      3  C   UNL     1      40.555  17.395 123.596 -0.26 -0.00    +0.000 A 
DOCKED: ATOM      4  C   UNL     1      41.904  17.107 123.830 -0.26 -0.00    +0.000 A 
DOCKED: ATOM      5  C   UNL     1      42.867  17.393 122.852 -0.30 -0.00    +0.000 A 
DOCKED: ATOM      6  C   UNL     1      44.223  17.116 123.082 -0.22 -0.00    +0.000 A 
DOCKED: ATOM      7  C   UNL     1      45.189  17.437 122.114 -0.25 -0.00    +0.000 A 
DOCKED: ATOM      8  C   UNL     1      44.782  17.999 120.893 -0.10 -0.00    +0.000 A 
DOCKED: ATOM      9  C   UNL     1      43.432  18.271 120.653 -0.07 -0.00    +0.000 A 
DOCKED: ATOM     10  C   UNL     1      42.467  17.977 121.627 -0.13 -0.00    +0.000 A 
DOCKED: ATOM     11  C   UNL     1      41.111  18.255 121.397 -0.07 -0.00    +0.000 A 
DOCKED: ATOM     12  CM  UNL     1      41.509  17.681 122.614 +0.00 -0.00    +0.000 AC
DOCKED: ATOM     13  CM  UNL     1      43.827  17.699 121.870 +0.00 -0.00    +0.000 AC
DOCKED: BRANCH   7  12
DOCKED: ATOM     14  C   UNL     1      46.643  17.126 122.363 -0.33 +0.00    +0.000 C 
DOCKED: BRANCH  12  13
DOCKED: ATOM     15  N   UNL     1      47.099  17.715 123.641 -0.38 -0.00    +0.000 N 
DOCKED: ATOM     16  H   UNL     1      46.428  17.329 124.307 -0.06 -0.00    +0.000 HD
DOCKED: BRANCH  13  15
DOCKED: ATOM     17  C   UNL     1      48.411  17.216 124.107 -0.42 -0.00    +0.000 C 
DOCKED: ATOM     18  C   UNL     1      48.884  15.955 123.381 -0.40 +0.00    +0.000 C 
DOCKED: ENDBRANCH  13  15
DOCKED: BRANCH  13  17
DOCKED: ATOM     19  C   UNL     1      46.876  19.172 123.826 -0.27 -0.00    +0.000 C 
DOCKED: ATOM     20  C   UNL     1      48.142  19.985 124.130 -0.19 -0.00    +0.000 C 
DOCKED: ENDBRANCH  13  17
DOCKED: ENDBRANCH  12  13
DOCKED: ENDBRANCH   7  12
DOCKED: ENDBRANCH   1   2
DOCKED: BRANCH   1  19
DOCKED: ATOM     21  O   UNL     1      37.887  17.319 122.772 -0.18 -0.00    +0.000 OA
DOCKED: BRANCH  19  21
DOCKED: ATOM     22  O   UNL     1      38.985  15.487 121.902 -0.30 -0.00    +0.000 OA
DOCKED: ATOM     23  C   UNL     1      37.974  15.952 122.496 -0.29 -0.00    +0.000 C 
DOCKED: ATOM     24  N   UNL     1      36.879  15.098 122.857 -0.37 -0.00    +0.000 N 
DOCKED: ATOM     25  H   UNL     1      36.063  15.521 123.210 -0.01 -0.00    +0.000 HD
DOCKED: BRANCH  22  24
DOCKED: ATOM     26  C   UNL     1      36.895  13.666 122.738 -0.47 -0.00    +0.000 A 
DOCKED: ATOM     27  C   UNL     1      37.163  13.081 121.492 -0.43 -0.00    +0.000 A 
DOCKED: ATOM     28  C   UNL     1      37.159  11.692 121.342 -0.45 -0.00    +0.000 A 
DOCKED: ATOM     29  C   UNL     1      36.863  10.857 122.435 -0.54 -0.00    +0.000 A 
DOCKED: ATOM     30  C   UNL     1      36.587  11.446 123.682 -0.61 -0.00    +0.000 A 
DOCKED: ATOM     31  C   UNL     1      36.592  12.836 123.830 -0.52 -0.00    +0.000 A 
DOCKED: ATOM     32  CM  UNL     1      36.876  12.263 122.587 +0.00 -0.00    +0.000 AC
DOCKED: BRANCH  27  30
DOCKED: ATOM     33  C   UNL     1      36.850   9.379 122.295 -0.68 -0.00    +0.000 C 
DOCKED: ATOM     34  N   UNL     1      37.021   8.520 123.428 -0.67 -0.00    +0.000 N 
DOCKED: ATOM     35  O   UNL     1      36.903   7.180 123.289 -2.12 -0.00    +0.000 OA
DOCKED: ATOM     36  O   UNL     1      36.699   8.864 121.153 -2.62 -0.00    +0.000 OA
DOCKED: ATOM     37  H   UNL     1      37.227   8.906 124.309 -0.57 -0.00    +0.000 HD
DOCKED: ENDBRANCH  27  30
DOCKED: ENDBRANCH  22  24
DOCKED: ENDBRANCH  19  21
DOCKED: ENDBRANCH   1  19
DOCKED: TORSDOF 9DOCKED: TER
DOCKED: ENDMDL
________________________________________________________________________________


	BEGINNING GENETIC ALGORITHM DOCKING 86 of 100
Run: 86 Seed: 424951837 690140564 [ Run 86 of 100 GA/GALS ]
Beginning LAMARCKIAN GENETIC ALGORITHM (LGA), with a maximum of 2500000 energy evaluations.

Final-Value: -18.195


	FINAL GENETIC ALGORITHM DOCKED STATE
	_______________________________________________


Detailed state:  trans 37.427 16.622 121.812 quatxyzw 0.368370 0.440285 -0.310655 -0.757592 center 1.619 0.086 0.013 ntor 9 13.6901 -164.8145 -179.7335 -38.3484 165.0547 -178.4056 65.9859 -102.5294 5.6460
State:	 37.427  16.622 121.812   0.564  0.675 -0.476 -81.495     13.69 -164.81 -179.73  -38.35  165.05 -178.41   65.99 -102.53    5.65

DOCKED: MODEL       86
DOCKED: USER    Run = 86
DOCKED: USER    DPF = ligand_dock.biased.dpf
DOCKED: USER  
DOCKED: USER    Estimated Free Energy of Binding    =  -13.73 kcal/mol  [=(1)+(2)+(3)-(4)]
DOCKED: USER    Estimated Inhibition Constant, Ki   =   85.82 pM (picomolar)  [Temperature = 298.15 K]
DOCKED: USER    
DOCKED: USER    (1) Final Intermolecular Energy     =  -16.42 kcal/mol
DOCKED: USER        vdW + Hbond + desolv Energy     =  -16.42 kcal/mol
DOCKED: USER        Electrostatic Energy            =   +0.00 kcal/mol
DOCKED: USER    (2) Final Total Internal Energy     =   -1.78 kcal/mol
DOCKED: USER    (3) Torsional Free Energy           =   +2.68 kcal/mol
DOCKED: USER    (4) Unbound System's Energy  [=(2)] =   -1.78 kcal/mol
DOCKED: USER    
DOCKED: USER    
DOCKED: USER    NEWDPF move ligand.dum.pdbqt
DOCKED: USER    NEWDPF about 1.619000 0.086000 0.013000
DOCKED: USER    NEWDPF tran0 37.427092 16.622309 121.812427
DOCKED: USER    NEWDPF quaternion0 0.368370 0.440285 -0.310655 -0.757592
DOCKED: USER    NEWDPF axisangle0 0.564355 0.674530 -0.475933 -81.495215
DOCKED: USER    NEWDPF quat0 0.564355 0.674530 -0.475933 -81.495215
DOCKED: USER    NEWDPF dihe0 13.69 -164.81 -179.73 -38.35 165.05 -178.41 65.99 -102.53 5.65 
DOCKED: USER  keepresnum = 1 
DOCKED: USER  
DOCKED: REMARK  Name = 
DOCKED: REMARK  11 active torsions:
DOCKED: REMARK  status: ('A' for Active; 'I' for Inactive)
DOCKED: REMARK    1  A    between atoms: C_2  and  O_3
DOCKED: REMARK    2  A    between atoms: O_3  and  C_4
DOCKED: REMARK    3  A    between atoms: C_4  and  C_5
DOCKED: REMARK    4  A    between atoms: C_10  and  C_11
DOCKED: REMARK    5  A    between atoms: C_11  and  N_12
DOCKED: REMARK    6  A    between atoms: N_12  and  C_13
DOCKED: REMARK    7  A    between atoms: N_12  and  C_15
DOCKED: REMARK    8  A    between atoms: C_13  and  C_14
DOCKED: REMARK    9  A    between atoms: C_15  and  C_16
DOCKED: REMARK   10  A    between atoms: N_21  and  C_22
DOCKED: REMARK   11  A    between atoms: C_25  and  C_26
DOCKED: REMARK                            x       y       z     vdW  Elec       q    Type
DOCKED: REMARK                         _______ _______ _______ _____ _____    ______ ____
DOCKED: USER                              x       y       z     vdW  Elec       q    Type
DOCKED: USER                           _______ _______ _______ _____ _____    ______ ____
DOCKED: ROOT
DOCKED: ATOM      1  C   UNL     1      36.290  18.346 120.599 -0.17 -0.00    +0.000 C 
DOCKED: ENDROOT
DOCKED: BRANCH   1   2
DOCKED: ATOM      2  C   UNL     1      35.815  18.456 122.020 -0.21 -0.00    +0.000 A 
DOCKED: ATOM      3  C   UNL     1      36.041  19.625 122.761 -0.15 -0.00    +0.000 A 
DOCKED: ATOM      4  C   UNL     1      35.613  19.716 124.089 -0.15 -0.00    +0.000 A 
DOCKED: ATOM      5  C   UNL     1      34.964  18.631 124.697 -0.26 -0.00    +0.000 A 
DOCKED: ATOM      6  C   UNL     1      34.539  18.710 126.032 -0.25 -0.00    +0.000 A 
DOCKED: ATOM      7  C   UNL     1      33.922  17.609 126.648 -0.32 -0.00    +0.000 A 
DOCKED: ATOM      8  C   UNL     1      33.693  16.441 125.904 -0.34 -0.00    +0.000 A 
DOCKED: ATOM      9  C   UNL     1      34.106  16.357 124.571 -0.44 -0.00    +0.000 A 
DOCKED: ATOM     10  C   UNL     1      34.746  17.444 123.959 -0.36 -0.00    +0.000 A 
DOCKED: ATOM     11  C   UNL     1      35.172  17.364 122.625 -0.30 -0.00    +0.000 A 
DOCKED: ATOM     12  CM  UNL     1      35.392  18.540 123.358 -0.04 -0.00    +0.000 AC
DOCKED: ATOM     13  CM  UNL     1      34.328  17.532 125.302 -0.36 -0.00    +0.000 AC
DOCKED: BRANCH   7  12
DOCKED: ATOM     14  C   UNL     1      33.458  17.705 128.079 -0.29 -0.00    +0.000 C 
DOCKED: BRANCH  12  13
DOCKED: ATOM     15  N   UNL     1      31.983  17.620 128.165 -0.32 -0.00    +0.000 N 
DOCKED: ATOM     16  H   UNL     1      31.725  17.401 127.202 -0.44 -0.00    +0.000 HD
DOCKED: BRANCH  13  15
DOCKED: ATOM     17  C   UNL     1      31.485  16.473 128.954 -0.41 -0.00    +0.000 C 
DOCKED: ATOM     18  C   UNL     1      31.394  16.752 130.456 -0.39 -0.00    +0.000 C 
DOCKED: ENDBRANCH  13  15
DOCKED: BRANCH  13  17
DOCKED: ATOM     19  C   UNL     1      31.249  18.895 128.372 -0.27 -0.00    +0.000 C 
DOCKED: ATOM     20  C   UNL     1      29.808  18.903 127.843 -0.42 -0.00    +0.000 C 
DOCKED: ENDBRANCH  13  17
DOCKED: ENDBRANCH  12  13
DOCKED: ENDBRANCH   7  12
DOCKED: ENDBRANCH   1   2
DOCKED: BRANCH   1  19
DOCKED: ATOM     21  O   UNL     1      37.311  17.358 120.521 -0.12 -0.00    +0.000 OA
DOCKED: BRANCH  19  21
DOCKED: ATOM     22  O   UNL     1      36.411  15.431 119.627 -0.22 -0.00    +0.000 OA
DOCKED: ATOM     23  C   UNL     1      37.042  15.987 120.568 -0.20 -0.00    +0.000 C 
DOCKED: ATOM     24  N   UNL     1      37.453  15.236 121.719 -0.26 -0.00    +0.000 N 
DOCKED: ATOM     25  H   UNL     1      37.835  15.732 122.479 -0.00 -0.00    +0.000 HD
DOCKED: BRANCH  22  24
DOCKED: ATOM     26  C   UNL     1      37.344  13.808 121.836 -0.39 -0.00    +0.000 A 
DOCKED: ATOM     27  C   UNL     1      37.566  13.006 120.708 -0.43 -0.00    +0.000 A 
DOCKED: ATOM     28  C   UNL     1      37.442  11.616 120.787 -0.42 -0.00    +0.000 A 
DOCKED: ATOM     29  C   UNL     1      37.070  11.001 121.996 -0.46 -0.00    +0.000 A 
DOCKED: ATOM     30  C   UNL     1      36.841  11.808 123.125 -0.60 -0.00    +0.000 A 
DOCKED: ATOM     31  C   UNL     1      36.967  13.198 123.044 -0.52 -0.00    +0.000 A 
DOCKED: ATOM     32  CM  UNL     1      37.205  12.406 121.917 +0.00 -0.00    +0.000 AC
DOCKED: BRANCH  27  30
DOCKED: ATOM     33  C   UNL     1      36.929   9.526 122.100 -0.64 -0.00    +0.000 C 
DOCKED: ATOM     34  N   UNL     1      37.015   8.855 123.362 -0.63 -0.00    +0.000 N 
DOCKED: ATOM     35  O   UNL     1      36.782   7.525 123.442 -2.40 -0.00    +0.000 OA
DOCKED: ATOM     36  O   UNL     1      36.744   8.845 121.055 -2.63 -0.00    +0.000 OA
DOCKED: ATOM     37  H   UNL     1      37.246   9.363 124.173 -0.60 -0.00    +0.000 HD
DOCKED: ENDBRANCH  27  30
DOCKED: ENDBRANCH  22  24
DOCKED: ENDBRANCH  19  21
DOCKED: ENDBRANCH   1  19
DOCKED: TORSDOF 9DOCKED: TER
DOCKED: ENDMDL
________________________________________________________________________________


	BEGINNING GENETIC ALGORITHM DOCKING 87 of 100
Run: 87 Seed: 1318844240 468045844 [ Run 87 of 100 GA/GALS ]
Beginning LAMARCKIAN GENETIC ALGORITHM (LGA), with a maximum of 2500000 energy evaluations.

Final-Value: -17.551


	FINAL GENETIC ALGORITHM DOCKED STATE
	_______________________________________________


Detailed state:  trans 36.996 16.569 123.506 quatxyzw 0.404604 0.430777 -0.163154 -0.790004 center 1.619 0.086 0.013 ntor 9 165.6791 177.9396 -177.1053 -99.8454 -50.2269 140.4193 96.8266 -95.4733 -176.2533
State:	 36.996  16.569 123.506   0.660  0.703 -0.266 -75.628    165.68  177.94 -177.11  -99.85  -50.23  140.42   96.83  -95.47 -176.25

DOCKED: MODEL       87
DOCKED: USER    Run = 87
DOCKED: USER    DPF = ligand_dock.biased.dpf
DOCKED: USER  
DOCKED: USER    Estimated Free Energy of Binding    =  -13.43 kcal/mol  [=(1)+(2)+(3)-(4)]
DOCKED: USER    Estimated Inhibition Constant, Ki   =  143.66 pM (picomolar)  [Temperature = 298.15 K]
DOCKED: USER    
DOCKED: USER    (1) Final Intermolecular Energy     =  -16.11 kcal/mol
DOCKED: USER        vdW + Hbond + desolv Energy     =  -16.11 kcal/mol
DOCKED: USER        Electrostatic Energy            =   +0.00 kcal/mol
DOCKED: USER    (2) Final Total Internal Energy     =   -1.44 kcal/mol
DOCKED: USER    (3) Torsional Free Energy           =   +2.68 kcal/mol
DOCKED: USER    (4) Unbound System's Energy  [=(2)] =   -1.44 kcal/mol
DOCKED: USER    
DOCKED: USER    
DOCKED: USER    NEWDPF move ligand.dum.pdbqt
DOCKED: USER    NEWDPF about 1.619000 0.086000 0.013000
DOCKED: USER    NEWDPF tran0 36.996295 16.568710 123.506045
DOCKED: USER    NEWDPF quaternion0 0.404604 0.430777 -0.163154 -0.790004
DOCKED: USER    NEWDPF axisangle0 0.659931 0.702620 -0.266113 -75.628143
DOCKED: USER    NEWDPF quat0 0.659931 0.702620 -0.266113 -75.628143
DOCKED: USER    NEWDPF dihe0 165.68 177.94 -177.11 -99.85 -50.23 140.42 96.83 -95.47 -176.25 
DOCKED: USER  keepresnum = 1 
DOCKED: USER  
DOCKED: REMARK  Name = 
DOCKED: REMARK  11 active torsions:
DOCKED: REMARK  status: ('A' for Active; 'I' for Inactive)
DOCKED: REMARK    1  A    between atoms: C_2  and  O_3
DOCKED: REMARK    2  A    between atoms: O_3  and  C_4
DOCKED: REMARK    3  A    between atoms: C_4  and  C_5
DOCKED: REMARK    4  A    between atoms: C_10  and  C_11
DOCKED: REMARK    5  A    between atoms: C_11  and  N_12
DOCKED: REMARK    6  A    between atoms: N_12  and  C_13
DOCKED: REMARK    7  A    between atoms: N_12  and  C_15
DOCKED: REMARK    8  A    between atoms: C_13  and  C_14
DOCKED: REMARK    9  A    between atoms: C_15  and  C_16
DOCKED: REMARK   10  A    between atoms: N_21  and  C_22
DOCKED: REMARK   11  A    between atoms: C_25  and  C_26
DOCKED: REMARK                            x       y       z     vdW  Elec       q    Type
DOCKED: REMARK                         _______ _______ _______ _____ _____    ______ ____
DOCKED: USER                              x       y       z     vdW  Elec       q    Type
DOCKED: USER                           _______ _______ _______ _____ _____    ______ ____
DOCKED: ROOT
DOCKED: ATOM      1  C   UNL     1      35.718  18.229 122.345 -0.26 -0.00    +0.000 C 
DOCKED: ENDROOT
DOCKED: BRANCH   1   2
DOCKED: ATOM      2  C   UNL     1      35.014  18.002 123.653 -0.30 -0.00    +0.000 A 
DOCKED: ATOM      3  C   UNL     1      34.460  16.750 123.958 -0.44 -0.00    +0.000 A 
DOCKED: ATOM      4  C   UNL     1      33.790  16.549 125.169 -0.24 -0.00    +0.000 A 
DOCKED: ATOM      5  C   UNL     1      33.654  17.602 126.084 -0.34 -0.00    +0.000 A 
DOCKED: ATOM      6  C   UNL     1      32.975  17.412 127.298 -0.33 -0.00    +0.000 A 
DOCKED: ATOM      7  C   UNL     1      32.811  18.479 128.196 -0.18 -0.00    +0.000 A 
DOCKED: ATOM      8  C   UNL     1      33.369  19.730 127.890 -0.11 -0.00    +0.000 A 
DOCKED: ATOM      9  C   UNL     1      34.054  19.927 126.687 -0.16 -0.00    +0.000 A 
DOCKED: ATOM     10  C   UNL     1      34.198  18.872 125.776 -0.26 -0.00    +0.000 A 
DOCKED: ATOM     11  C   UNL     1      34.876  19.063 124.562 -0.19 -0.00    +0.000 A 
DOCKED: ATOM     12  CM  UNL     1      34.332  17.806 124.867 -0.38 -0.00    +0.000 AC
DOCKED: ATOM     13  CM  UNL     1      33.510  18.671 126.989 -0.00 -0.00    +0.000 AC
DOCKED: BRANCH   7  12
DOCKED: ATOM     14  C   UNL     1      32.090  18.264 129.503 -0.22 -0.00    +0.000 C 
DOCKED: BRANCH  12  13
DOCKED: ATOM     15  N   UNL     1      30.701  18.766 129.431 -0.26 -0.00    +0.000 N 
DOCKED: ATOM     16  H   UNL     1      30.838  19.733 129.133 +0.01 -0.00    +0.000 HD
DOCKED: BRANCH  13  15
DOCKED: ATOM     17  C   UNL     1      29.889  18.159 128.356 -0.44 -0.00    +0.000 C 
DOCKED: ATOM     18  C   UNL     1      29.315  19.177 127.367 -0.51 -0.00    +0.000 C 
DOCKED: ENDBRANCH  13  15
DOCKED: BRANCH  13  17
DOCKED: ATOM     19  C   UNL     1      29.992  18.966 130.721 -0.28 -0.00    +0.000 C 
DOCKED: ATOM     20  C   UNL     1      29.191  20.271 130.823 -0.36 -0.00    +0.000 C 
DOCKED: ENDBRANCH  13  17
DOCKED: ENDBRANCH  12  13
DOCKED: ENDBRANCH   7  12
DOCKED: ENDBRANCH   1   2
DOCKED: BRANCH   1  19
DOCKED: ATOM     21  O   UNL     1      36.927  17.479 122.327 -0.17 -0.00    +0.000 OA
DOCKED: BRANCH  19  21
DOCKED: ATOM     22  O   UNL     1      37.283  15.763 120.826 -0.22 -0.00    +0.000 OA
DOCKED: ATOM     23  C   UNL     1      36.972  16.122 121.996 -0.25 -0.00    +0.000 C 
DOCKED: ATOM     24  N   UNL     1      36.614  15.151 122.988 -0.38 -0.00    +0.000 N 
DOCKED: ATOM     25  H   UNL     1      36.263  15.479 123.848 -0.02 -0.00    +0.000 HD
DOCKED: BRANCH  22  24
DOCKED: ATOM     26  C   UNL     1      36.733  13.729 122.812 -0.47 -0.00    +0.000 A 
DOCKED: ATOM     27  C   UNL     1      37.135  13.221 121.569 -0.42 -0.00    +0.000 A 
DOCKED: ATOM     28  C   UNL     1      37.234  11.843 121.362 -0.45 -0.00    +0.000 A 
DOCKED: ATOM     29  C   UNL     1      36.910  10.941 122.392 -0.53 -0.00    +0.000 A 
DOCKED: ATOM     30  C   UNL     1      36.499  11.453 123.637 -0.61 -0.00    +0.000 A 
DOCKED: ATOM     31  C   UNL     1      36.402  12.832 123.841 -0.54 -0.00    +0.000 A 
DOCKED: ATOM     32  CM  UNL     1      36.819  12.336 122.603 +0.00 -0.00    +0.000 AC
DOCKED: BRANCH  27  30
DOCKED: ATOM     33  C   UNL     1      37.006   9.473 122.191 -0.63 -0.00    +0.000 C 
DOCKED: ATOM     34  N   UNL     1      37.084   8.571 123.300 -0.68 -0.00    +0.000 N 
DOCKED: ATOM     35  O   UNL     1      37.066   7.234 123.092 -2.21 -0.00    +0.000 OA
DOCKED: ATOM     36  O   UNL     1      37.034   9.007 121.019 -2.71 -0.00    +0.000 OA
DOCKED: ATOM     37  H   UNL     1      37.150   8.924 124.216 -0.57 -0.00    +0.000 HD
DOCKED: ENDBRANCH  27  30
DOCKED: ENDBRANCH  22  24
DOCKED: ENDBRANCH  19  21
DOCKED: ENDBRANCH   1  19
DOCKED: TORSDOF 9DOCKED: TER
DOCKED: ENDMDL
________________________________________________________________________________


	BEGINNING GENETIC ALGORITHM DOCKING 88 of 100
Run: 88 Seed: 1548153647 1520453649 [ Run 88 of 100 GA/GALS ]
Beginning LAMARCKIAN GENETIC ALGORITHM (LGA), with a maximum of 2500000 energy evaluations.

Final-Value: -16.292


	FINAL GENETIC ALGORITHM DOCKED STATE
	_______________________________________________


Detailed state:  trans 39.538 16.159 122.263 quatxyzw 0.146914 -0.357065 0.880562 -0.274831 center 1.619 0.086 0.013 ntor 9 -179.0417 107.2093 178.3410 180.0000 126.4310 59.3304 61.0639 153.0436 -10.1264
State:	 39.538  16.159 122.263   0.153 -0.371  0.916 -148.096   -179.04  107.21  178.34  180.00  126.43   59.33   61.06  153.04  -10.13

DOCKED: MODEL       88
DOCKED: USER    Run = 88
DOCKED: USER    DPF = ligand_dock.biased.dpf
DOCKED: USER  
DOCKED: USER    Estimated Free Energy of Binding    =  -12.17 kcal/mol  [=(1)+(2)+(3)-(4)]
DOCKED: USER    Estimated Inhibition Constant, Ki   =    1.21 nM (nanomolar)  [Temperature = 298.15 K]
DOCKED: USER    
DOCKED: USER    (1) Final Intermolecular Energy     =  -14.85 kcal/mol
DOCKED: USER        vdW + Hbond + desolv Energy     =  -14.85 kcal/mol
DOCKED: USER        Electrostatic Energy            =   +0.00 kcal/mol
DOCKED: USER    (2) Final Total Internal Energy     =   -1.44 kcal/mol
DOCKED: USER    (3) Torsional Free Energy           =   +2.68 kcal/mol
DOCKED: USER    (4) Unbound System's Energy  [=(2)] =   -1.44 kcal/mol
DOCKED: USER    
DOCKED: USER    
DOCKED: USER    NEWDPF move ligand.dum.pdbqt
DOCKED: USER    NEWDPF about 1.619000 0.086000 0.013000
DOCKED: USER    NEWDPF tran0 39.538295 16.159397 122.262541
DOCKED: USER    NEWDPF quaternion0 0.146914 -0.357065 0.880562 -0.274831
DOCKED: USER    NEWDPF axisangle0 0.152798 -0.371365 0.915828 -148.096090
DOCKED: USER    NEWDPF quat0 0.152798 -0.371365 0.915828 -148.096090
DOCKED: USER    NEWDPF dihe0 -179.04 107.21 178.34 180.00 126.43 59.33 61.06 153.04 -10.13 
DOCKED: USER  keepresnum = 1 
DOCKED: USER  
DOCKED: REMARK  Name = 
DOCKED: REMARK  11 active torsions:
DOCKED: REMARK  status: ('A' for Active; 'I' for Inactive)
DOCKED: REMARK    1  A    between atoms: C_2  and  O_3
DOCKED: REMARK    2  A    between atoms: O_3  and  C_4
DOCKED: REMARK    3  A    between atoms: C_4  and  C_5
DOCKED: REMARK    4  A    between atoms: C_10  and  C_11
DOCKED: REMARK    5  A    between atoms: C_11  and  N_12
DOCKED: REMARK    6  A    between atoms: N_12  and  C_13
DOCKED: REMARK    7  A    between atoms: N_12  and  C_15
DOCKED: REMARK    8  A    between atoms: C_13  and  C_14
DOCKED: REMARK    9  A    between atoms: C_15  and  C_16
DOCKED: REMARK   10  A    between atoms: N_21  and  C_22
DOCKED: REMARK   11  A    between atoms: C_25  and  C_26
DOCKED: REMARK                            x       y       z     vdW  Elec       q    Type
DOCKED: REMARK                         _______ _______ _______ _____ _____    ______ ____
DOCKED: USER                              x       y       z     vdW  Elec       q    Type
DOCKED: USER                           _______ _______ _______ _____ _____    ______ ____
DOCKED: ROOT
DOCKED: ATOM      1  C   UNL     1      39.295  18.153 120.958 -0.06 -0.00    +0.000 C 
DOCKED: ENDROOT
DOCKED: BRANCH   1   2
DOCKED: ATOM      2  C   UNL     1      40.456  17.408 120.364 -0.08 -0.00    +0.000 A 
DOCKED: ATOM      3  C   UNL     1      40.305  16.683 119.172 -0.10 -0.00    +0.000 A 
DOCKED: ATOM      4  C   UNL     1      41.384  15.975 118.633 -0.13 -0.00    +0.000 A 
DOCKED: ATOM      5  C   UNL     1      42.624  15.972 119.287 -0.15 -0.00    +0.000 A 
DOCKED: ATOM      6  C   UNL     1      43.709  15.257 118.758 -0.22 -0.00    +0.000 A 
DOCKED: ATOM      7  C   UNL     1      44.940  15.228 119.434 -0.33 +0.00    +0.000 A 
DOCKED: ATOM      8  C   UNL     1      45.090  15.957 120.624 -0.25 +0.00    +0.000 A 
DOCKED: ATOM      9  C   UNL     1      44.016  16.679 121.155 -0.22 -0.00    +0.000 A 
DOCKED: ATOM     10  C   UNL     1      42.778  16.689 120.497 -0.17 -0.00    +0.000 A 
DOCKED: ATOM     11  C   UNL     1      41.693  17.403 121.027 -0.12 -0.00    +0.000 A 
DOCKED: ATOM     12  CM  UNL     1      41.540  16.688 119.829 +0.00 -0.00    +0.000 AC
DOCKED: ATOM     13  CM  UNL     1      43.860  15.964 119.959 +0.00 -0.00    +0.000 AC
DOCKED: BRANCH   7  12
DOCKED: ATOM     14  C   UNL     1      46.104  14.467 118.853 -0.35 +0.00    +0.000 C 
DOCKED: BRANCH  12  13
DOCKED: ATOM     15  N   UNL     1      46.705  15.202 117.718 -0.31 -0.00    +0.000 N 
DOCKED: ATOM     16  H   UNL     1      46.827  14.463 117.024 -0.44 -0.00    +0.000 HD
DOCKED: BRANCH  13  15
DOCKED: ATOM     17  C   UNL     1      45.796  16.173 117.072 -0.22 -0.00    +0.000 C 
DOCKED: ATOM     18  C   UNL     1      45.291  15.723 115.699 -0.28 -0.00    +0.000 C 
DOCKED: ENDBRANCH  13  15
DOCKED: BRANCH  13  17
DOCKED: ATOM     19  C   UNL     1      48.107  15.666 117.886 -0.24 -0.00    +0.000 C 
DOCKED: ATOM     20  C   UNL     1      49.148  14.543 117.999 -0.36 -0.00    +0.000 C 
DOCKED: ENDBRANCH  13  17
DOCKED: ENDBRANCH  12  13
DOCKED: ENDBRANCH   7  12
DOCKED: ENDBRANCH   1   2
DOCKED: BRANCH   1  19
DOCKED: ATOM     21  O   UNL     1      38.702  17.361 121.980 -0.13 -0.00    +0.000 OA
DOCKED: BRANCH  19  21
DOCKED: ATOM     22  O   UNL     1      39.831  15.350 122.010 -0.40 -0.00    +0.000 OA
DOCKED: ATOM     23  C   UNL     1      38.729  15.963 121.967 -0.26 -0.00    +0.000 C 
DOCKED: ATOM     24  N   UNL     1      37.494  15.244 121.855 -0.27 -0.00    +0.000 N 
DOCKED: ATOM     25  H   UNL     1      36.671  15.763 121.703 -0.00 -0.00    +0.000 HD
DOCKED: BRANCH  22  24
DOCKED: ATOM     26  C   UNL     1      37.377  13.814 121.950 -0.40 -0.00    +0.000 A 
DOCKED: ATOM     27  C   UNL     1      37.574  13.030 120.804 -0.43 -0.00    +0.000 A 
DOCKED: ATOM     28  C   UNL     1      37.440  11.640 120.862 -0.42 -0.00    +0.000 A 
DOCKED: ATOM     29  C   UNL     1      37.083  11.007 122.067 -0.45 -0.00    +0.000 A 
DOCKED: ATOM     30  C   UNL     1      36.879  11.797 123.214 -0.60 -0.00    +0.000 A 
DOCKED: ATOM     31  C   UNL     1      37.014  13.186 123.153 -0.52 -0.00    +0.000 A 
DOCKED: ATOM     32  CM  UNL     1      37.227  12.412 122.009 +0.00 -0.00    +0.000 AC
DOCKED: BRANCH  27  30
DOCKED: ATOM     33  C   UNL     1      36.934   9.532 122.149 -0.64 -0.00    +0.000 C 
DOCKED: ATOM     34  N   UNL     1      37.076   8.834 123.391 -0.63 -0.00    +0.000 N 
DOCKED: ATOM     35  O   UNL     1      36.833   7.505 123.456 -2.42 -0.00    +0.000 OA
DOCKED: ATOM     36  O   UNL     1      36.690   8.873 121.101 -2.61 -0.00    +0.000 OA
DOCKED: ATOM     37  H   UNL     1      37.351   9.323 124.199 -0.62 -0.00    +0.000 HD
DOCKED: ENDBRANCH  27  30
DOCKED: ENDBRANCH  22  24
DOCKED: ENDBRANCH  19  21
DOCKED: ENDBRANCH   1  19
DOCKED: TORSDOF 9DOCKED: TER
DOCKED: ENDMDL
________________________________________________________________________________


	BEGINNING GENETIC ALGORITHM DOCKING 89 of 100
Run: 89 Seed: 906618057 1925616396 [ Run 89 of 100 GA/GALS ]
Beginning LAMARCKIAN GENETIC ALGORITHM (LGA), with a maximum of 2500000 energy evaluations.

Final-Value: -18.532


	FINAL GENETIC ALGORITHM DOCKED STATE
	_______________________________________________


Detailed state:  trans 37.860 16.675 123.793 quatxyzw 0.340452 0.384012 -0.138114 -0.847084 center 1.619 0.086 0.013 ntor 9 -88.8798 -173.6285 166.7748 -15.5553 -27.6474 70.2804 168.1614 -96.8140 -168.8180
State:	 37.860  16.675 123.793   0.641  0.723 -0.260 -64.208    -88.88 -173.63  166.77  -15.56  -27.65   70.28  168.16  -96.81 -168.82

DOCKED: MODEL       89
DOCKED: USER    Run = 89
DOCKED: USER    DPF = ligand_dock.biased.dpf
DOCKED: USER  
DOCKED: USER    Estimated Free Energy of Binding    =  -14.30 kcal/mol  [=(1)+(2)+(3)-(4)]
DOCKED: USER    Estimated Inhibition Constant, Ki   =   32.85 pM (picomolar)  [Temperature = 298.15 K]
DOCKED: USER    
DOCKED: USER    (1) Final Intermolecular Energy     =  -16.99 kcal/mol
DOCKED: USER        vdW + Hbond + desolv Energy     =  -16.99 kcal/mol
DOCKED: USER        Electrostatic Energy            =   +0.00 kcal/mol
DOCKED: USER    (2) Final Total Internal Energy     =   -1.55 kcal/mol
DOCKED: USER    (3) Torsional Free Energy           =   +2.68 kcal/mol
DOCKED: USER    (4) Unbound System's Energy  [=(2)] =   -1.55 kcal/mol
DOCKED: USER    
DOCKED: USER    
DOCKED: USER    NEWDPF move ligand.dum.pdbqt
DOCKED: USER    NEWDPF about 1.619000 0.086000 0.013000
DOCKED: USER    NEWDPF tran0 37.860316 16.675269 123.792764
DOCKED: USER    NEWDPF quaternion0 0.340452 0.384012 -0.138114 -0.847084
DOCKED: USER    NEWDPF axisangle0 0.640600 0.722562 -0.259878 -64.208120
DOCKED: USER    NEWDPF quat0 0.640600 0.722562 -0.259878 -64.208120
DOCKED: USER    NEWDPF dihe0 -88.88 -173.63 166.77 -15.56 -27.65 70.28 168.16 -96.81 -168.82 
DOCKED: USER  keepresnum = 1 
DOCKED: USER  
DOCKED: REMARK  Name = 
DOCKED: REMARK  11 active torsions:
DOCKED: REMARK  status: ('A' for Active; 'I' for Inactive)
DOCKED: REMARK    1  A    between atoms: C_2  and  O_3
DOCKED: REMARK    2  A    between atoms: O_3  and  C_4
DOCKED: REMARK    3  A    between atoms: C_4  and  C_5
DOCKED: REMARK    4  A    between atoms: C_10  and  C_11
DOCKED: REMARK    5  A    between atoms: C_11  and  N_12
DOCKED: REMARK    6  A    between atoms: N_12  and  C_13
DOCKED: REMARK    7  A    between atoms: N_12  and  C_15
DOCKED: REMARK    8  A    between atoms: C_13  and  C_14
DOCKED: REMARK    9  A    between atoms: C_15  and  C_16
DOCKED: REMARK   10  A    between atoms: N_21  and  C_22
DOCKED: REMARK   11  A    between atoms: C_25  and  C_26
DOCKED: REMARK                            x       y       z     vdW  Elec       q    Type
DOCKED: REMARK                         _______ _______ _______ _____ _____    ______ ____
DOCKED: USER                              x       y       z     vdW  Elec       q    Type
DOCKED: USER                           _______ _______ _______ _____ _____    ______ ____
DOCKED: ROOT
DOCKED: ATOM      1  C   UNL     1      36.632  18.049 122.262 -0.18 -0.00    +0.000 C 
DOCKED: ENDROOT
DOCKED: BRANCH   1   2
DOCKED: ATOM      2  C   UNL     1      35.785  17.944 123.498 -0.24 -0.00    +0.000 A 
DOCKED: ATOM      3  C   UNL     1      35.410  16.690 124.002 -0.37 -0.00    +0.000 A 
DOCKED: ATOM      4  C   UNL     1      34.606  16.597 125.143 -0.38 -0.00    +0.000 A 
DOCKED: ATOM      5  C   UNL     1      34.155  17.759 125.785 -0.34 -0.00    +0.000 A 
DOCKED: ATOM      6  C   UNL     1      33.340  17.676 126.924 -0.32 -0.00    +0.000 A 
DOCKED: ATOM      7  C   UNL     1      32.861  18.842 127.544 -0.20 -0.00    +0.000 A 
DOCKED: ATOM      8  C   UNL     1      33.240  20.096 127.040 -0.17 -0.00    +0.000 A 
DOCKED: ATOM      9  C   UNL     1      34.058  20.189 125.910 -0.16 -0.00    +0.000 A 
DOCKED: ATOM     10  C   UNL     1      34.517  19.027 125.272 -0.24 -0.00    +0.000 A 
DOCKED: ATOM     11  C   UNL     1      35.331  19.111 124.133 -0.19 -0.00    +0.000 A 
DOCKED: ATOM     12  CM  UNL     1      34.967  17.854 124.639 -0.43 -0.00    +0.000 AC
DOCKED: ATOM     13  CM  UNL     1      33.695  18.932 126.413 -0.02 -0.00    +0.000 AC
DOCKED: BRANCH   7  12
DOCKED: ATOM     14  C   UNL     1      31.996  18.744 128.775 -0.20 -0.00    +0.000 C 
DOCKED: BRANCH  12  13
DOCKED: ATOM     15  N   UNL     1      30.602  18.400 128.416 -0.34 -0.00    +0.000 N 
DOCKED: ATOM     16  H   UNL     1      30.729  17.854 127.563 -0.53 -0.00    +0.000 HD
DOCKED: BRANCH  13  15
DOCKED: ATOM     17  C   UNL     1      29.944  17.470 129.358 -0.37 -0.00    +0.000 C 
DOCKED: ATOM     18  C   UNL     1      30.919  16.731 130.277 -0.36 -0.00    +0.000 C 
DOCKED: ENDBRANCH  13  15
DOCKED: BRANCH  13  17
DOCKED: ATOM     19  C   UNL     1      29.745  19.507 127.919 -0.41 -0.00    +0.000 C 
DOCKED: ATOM     20  C   UNL     1      28.735  19.104 126.835 -0.62 -0.00    +0.000 C 
DOCKED: ENDBRANCH  13  17
DOCKED: ENDBRANCH  12  13
DOCKED: ENDBRANCH   7  12
DOCKED: ENDBRANCH   1   2
DOCKED: BRANCH   1  19
DOCKED: ATOM     21  O   UNL     1      37.881  17.408 122.494 -0.16 -0.00    +0.000 OA
DOCKED: BRANCH  19  21
DOCKED: ATOM     22  O   UNL     1      39.210  15.524 122.410 -0.35 -0.00    +0.000 OA
DOCKED: ATOM     23  C   UNL     1      38.051  16.024 122.398 -0.28 -0.00    +0.000 C 
DOCKED: ATOM     24  N   UNL     1      36.896  15.190 122.237 -0.30 -0.00    +0.000 N 
DOCKED: ATOM     25  H   UNL     1      36.024  15.631 122.114 -0.01 -0.00    +0.000 HD
DOCKED: BRANCH  22  24
DOCKED: ATOM     26  C   UNL     1      36.925  13.753 122.247 -0.40 -0.00    +0.000 A 
DOCKED: ATOM     27  C   UNL     1      37.421  13.067 121.128 -0.43 -0.00    +0.000 A 
DOCKED: ATOM     28  C   UNL     1      37.437  11.671 121.100 -0.39 -0.00    +0.000 A 
DOCKED: ATOM     29  C   UNL     1      36.934  10.929 122.184 -0.51 -0.00    +0.000 A 
DOCKED: ATOM     30  C   UNL     1      36.431  11.618 123.302 -0.62 -0.00    +0.000 A 
DOCKED: ATOM     31  C   UNL     1      36.416  13.016 123.329 -0.56 -0.00    +0.000 A 
DOCKED: ATOM     32  CM  UNL     1      36.927  12.342 122.215 +0.00 -0.00    +0.000 AC
DOCKED: BRANCH  27  30
DOCKED: ATOM     33  C   UNL     1      36.940   9.444 122.172 -0.65 -0.00    +0.000 C 
DOCKED: ATOM     34  N   UNL     1      37.169   8.688 123.366 -0.63 -0.00    +0.000 N 
DOCKED: ATOM     35  O   UNL     1      37.067   7.339 123.347 -2.39 -0.00    +0.000 OA
DOCKED: ATOM     36  O   UNL     1      36.753   8.831 121.085 -2.62 -0.00    +0.000 OA
DOCKED: ATOM     37  H   UNL     1      37.403   9.151 124.202 -0.62 -0.00    +0.000 HD
DOCKED: ENDBRANCH  27  30
DOCKED: ENDBRANCH  22  24
DOCKED: ENDBRANCH  19  21
DOCKED: ENDBRANCH   1  19
DOCKED: TORSDOF 9DOCKED: TER
DOCKED: ENDMDL
________________________________________________________________________________


	BEGINNING GENETIC ALGORITHM DOCKING 90 of 100
Run: 90 Seed: 786810865 1306607446 [ Run 90 of 100 GA/GALS ]
Beginning LAMARCKIAN GENETIC ALGORITHM (LGA), with a maximum of 2500000 energy evaluations.

Final-Value: -16.446


	FINAL GENETIC ALGORITHM DOCKED STATE
	_______________________________________________


Detailed state:  trans 37.623 16.621 121.191 quatxyzw 0.132594 0.879099 -0.450807 0.079854 center 1.619 0.086 0.013 ntor 9 77.7640 159.9257 164.7287 9.5653 162.4697 157.5495 -122.1199 -132.7619 160.6457
State:	 37.623  16.621 121.191   0.133  0.882 -0.452 170.840     77.76  159.93  164.73    9.57  162.47  157.55 -122.12 -132.76  160.65

DOCKED: MODEL       90
DOCKED: USER    Run = 90
DOCKED: USER    DPF = ligand_dock.biased.dpf
DOCKED: USER  
DOCKED: USER    Estimated Free Energy of Binding    =  -11.93 kcal/mol  [=(1)+(2)+(3)-(4)]
DOCKED: USER    Estimated Inhibition Constant, Ki   =    1.80 nM (nanomolar)  [Temperature = 298.15 K]
DOCKED: USER    
DOCKED: USER    (1) Final Intermolecular Energy     =  -14.61 kcal/mol
DOCKED: USER        vdW + Hbond + desolv Energy     =  -14.61 kcal/mol
DOCKED: USER        Electrostatic Energy            =   +0.00 kcal/mol
DOCKED: USER    (2) Final Total Internal Energy     =   -1.83 kcal/mol
DOCKED: USER    (3) Torsional Free Energy           =   +2.68 kcal/mol
DOCKED: USER    (4) Unbound System's Energy  [=(2)] =   -1.83 kcal/mol
DOCKED: USER    
DOCKED: USER    
DOCKED: USER    NEWDPF move ligand.dum.pdbqt
DOCKED: USER    NEWDPF about 1.619000 0.086000 0.013000
DOCKED: USER    NEWDPF tran0 37.623367 16.620894 121.191121
DOCKED: USER    NEWDPF quaternion0 0.132594 0.879099 -0.450807 0.079854
DOCKED: USER    NEWDPF axisangle0 0.133019 0.881915 -0.452252 170.839694
DOCKED: USER    NEWDPF quat0 0.133019 0.881915 -0.452252 170.839694
DOCKED: USER    NEWDPF dihe0 77.76 159.93 164.73 9.57 162.47 157.55 -122.12 -132.76 160.65 
DOCKED: USER  keepresnum = 1 
DOCKED: USER  
DOCKED: REMARK  Name = 
DOCKED: REMARK  11 active torsions:
DOCKED: REMARK  status: ('A' for Active; 'I' for Inactive)
DOCKED: REMARK    1  A    between atoms: C_2  and  O_3
DOCKED: REMARK    2  A    between atoms: O_3  and  C_4
DOCKED: REMARK    3  A    between atoms: C_4  and  C_5
DOCKED: REMARK    4  A    between atoms: C_10  and  C_11
DOCKED: REMARK    5  A    between atoms: C_11  and  N_12
DOCKED: REMARK    6  A    between atoms: N_12  and  C_13
DOCKED: REMARK    7  A    between atoms: N_12  and  C_15
DOCKED: REMARK    8  A    between atoms: C_13  and  C_14
DOCKED: REMARK    9  A    between atoms: C_15  and  C_16
DOCKED: REMARK   10  A    between atoms: N_21  and  C_22
DOCKED: REMARK   11  A    between atoms: C_25  and  C_26
DOCKED: REMARK                            x       y       z     vdW  Elec       q    Type
DOCKED: REMARK                         _______ _______ _______ _____ _____    ______ ____
DOCKED: USER                              x       y       z     vdW  Elec       q    Type
DOCKED: USER                           _______ _______ _______ _____ _____    ______ ____
DOCKED: ROOT
DOCKED: ATOM      1  C   UNL     1      37.840  18.358 122.826 -0.13 -0.00    +0.000 C 
DOCKED: ENDROOT
DOCKED: BRANCH   1   2
DOCKED: ATOM      2  C   UNL     1      39.222  17.809 122.619 -0.13 -0.00    +0.000 A 
DOCKED: ATOM      3  C   UNL     1      39.665  16.694 123.347 -0.18 -0.00    +0.000 A 
DOCKED: ATOM      4  C   UNL     1      40.959  16.197 123.163 -0.28 -0.00    +0.000 A 
DOCKED: ATOM      5  C   UNL     1      41.832  16.818 122.258 -0.28 -0.00    +0.000 A 
DOCKED: ATOM      6  C   UNL     1      43.135  16.332 122.075 -0.34 -0.00    +0.000 A 
DOCKED: ATOM      7  C   UNL     1      44.018  16.978 121.194 -0.20 -0.00    +0.000 A 
DOCKED: ATOM      8  C   UNL     1      43.572  18.092 120.464 -0.07 -0.00    +0.000 A 
DOCKED: ATOM      9  C   UNL     1      42.273  18.578 120.635 -0.05 -0.00    +0.000 A 
DOCKED: ATOM     10  C   UNL     1      41.396  17.952 121.532 -0.10 -0.00    +0.000 A 
DOCKED: ATOM     11  C   UNL     1      40.093  18.439 121.716 -0.06 -0.00    +0.000 A 
DOCKED: ATOM     12  CM  UNL     1      40.528  17.318 122.439 +0.00 -0.00    +0.000 AC
DOCKED: ATOM     13  CM  UNL     1      42.705  17.459 121.359 +0.00 -0.00    +0.000 AC
DOCKED: BRANCH   7  12
DOCKED: ATOM     14  C   UNL     1      45.413  16.443 120.993 -0.27 +0.00    +0.000 C 
DOCKED: BRANCH  12  13
DOCKED: ATOM     15  N   UNL     1      45.578  15.890 119.631 -0.24 +0.00    +0.000 N 
DOCKED: ATOM     16  H   UNL     1      45.297  16.676 119.045 +0.01 -0.00    +0.000 HD
DOCKED: BRANCH  13  15
DOCKED: ATOM     17  C   UNL     1      46.981  15.624 119.248 -0.28 +0.00    +0.000 C 
DOCKED: ATOM     18  C   UNL     1      47.141  14.463 118.263 -0.39 +0.00    +0.000 C 
DOCKED: ENDBRANCH  13  15
DOCKED: BRANCH  13  17
DOCKED: ATOM     19  C   UNL     1      44.601  14.855 119.205 -0.41 -0.00    +0.000 C 
DOCKED: ATOM     20  C   UNL     1      43.746  15.237 117.989 -0.33 -0.00    +0.000 C 
DOCKED: ENDBRANCH  13  17
DOCKED: ENDBRANCH  12  13
DOCKED: ENDBRANCH   7  12
DOCKED: ENDBRANCH   1   2
DOCKED: BRANCH   1  19
DOCKED: ATOM     21  O   UNL     1      36.946  17.740 121.906 -0.15 -0.00    +0.000 OA
DOCKED: BRANCH  19  21
DOCKED: ATOM     22  O   UNL     1      37.142  15.923 120.499 -0.21 -0.00    +0.000 OA
DOCKED: ATOM     23  C   UNL     1      36.941  16.364 121.664 -0.22 -0.00    +0.000 C 
DOCKED: ATOM     24  N   UNL     1      36.658  15.467 122.747 -0.33 -0.00    +0.000 N 
DOCKED: ATOM     25  H   UNL     1      36.391  15.859 123.610 -0.02 -0.00    +0.000 HD
DOCKED: BRANCH  22  24
DOCKED: ATOM     26  C   UNL     1      36.741  14.035 122.657 -0.42 -0.00    +0.000 A 
DOCKED: ATOM     27  C   UNL     1      37.365  13.450 121.546 -0.41 -0.00    +0.000 A 
DOCKED: ATOM     28  C   UNL     1      37.436  12.061 121.419 -0.43 -0.00    +0.000 A 
DOCKED: ATOM     29  C   UNL     1      36.862  11.225 122.395 -0.54 -0.00    +0.000 A 
DOCKED: ATOM     30  C   UNL     1      36.230  11.814 123.505 -0.62 -0.00    +0.000 A 
DOCKED: ATOM     31  C   UNL     1      36.161  13.204 123.629 -0.53 -0.00    +0.000 A 
DOCKED: ATOM     32  CM  UNL     1      36.798  12.631 122.526 +0.00 -0.00    +0.000 AC
DOCKED: BRANCH  27  30
DOCKED: ATOM     33  C   UNL     1      36.924   9.746 122.277 -0.63 -0.00    +0.000 C 
DOCKED: ATOM     34  N   UNL     1      37.112   8.913 123.427 -0.59 -0.00    +0.000 N 
DOCKED: ATOM     35  O   UNL     1      37.062   7.566 123.306 -2.53 -0.00    +0.000 OA
DOCKED: ATOM     36  O   UNL     1      36.824   9.208 121.141 -2.66 -0.00    +0.000 OA
DOCKED: ATOM     37  H   UNL     1      37.278   9.321 124.306 -0.59 -0.00    +0.000 HD
DOCKED: ENDBRANCH  27  30
DOCKED: ENDBRANCH  22  24
DOCKED: ENDBRANCH  19  21
DOCKED: ENDBRANCH   1  19
DOCKED: TORSDOF 9DOCKED: TER
DOCKED: ENDMDL
________________________________________________________________________________


	BEGINNING GENETIC ALGORITHM DOCKING 91 of 100
Run: 91 Seed: 1754256099 552136456 [ Run 91 of 100 GA/GALS ]
Beginning LAMARCKIAN GENETIC ALGORITHM (LGA), with a maximum of 2500000 energy evaluations.

Final-Value: -16.676


	FINAL GENETIC ALGORITHM DOCKED STATE
	_______________________________________________


Detailed state:  trans 37.957 15.910 123.335 quatxyzw -0.178865 -0.356983 0.292781 0.868821 center 1.619 0.086 0.013 ntor 9 -21.7640 156.5339 139.5556 -63.8389 176.5090 180.0000 -132.0785 -93.4543 -5.0086
State:	 37.957  15.910 123.335  -0.361 -0.721  0.591 59.356    -21.76  156.53  139.56  -63.84  176.51  180.00 -132.08  -93.45   -5.01

DOCKED: MODEL       91
DOCKED: USER    Run = 91
DOCKED: USER    DPF = ligand_dock.biased.dpf
DOCKED: USER  
DOCKED: USER    Estimated Free Energy of Binding    =  -12.34 kcal/mol  [=(1)+(2)+(3)-(4)]
DOCKED: USER    Estimated Inhibition Constant, Ki   =  901.23 pM (picomolar)  [Temperature = 298.15 K]
DOCKED: USER    
DOCKED: USER    (1) Final Intermolecular Energy     =  -15.02 kcal/mol
DOCKED: USER        vdW + Hbond + desolv Energy     =  -15.02 kcal/mol
DOCKED: USER        Electrostatic Energy            =   +0.00 kcal/mol
DOCKED: USER    (2) Final Total Internal Energy     =   -1.65 kcal/mol
DOCKED: USER    (3) Torsional Free Energy           =   +2.68 kcal/mol
DOCKED: USER    (4) Unbound System's Energy  [=(2)] =   -1.65 kcal/mol
DOCKED: USER    
DOCKED: USER    
DOCKED: USER    NEWDPF move ligand.dum.pdbqt
DOCKED: USER    NEWDPF about 1.619000 0.086000 0.013000
DOCKED: USER    NEWDPF tran0 37.957495 15.910010 123.335456
DOCKED: USER    NEWDPF quaternion0 -0.178865 -0.356983 0.292781 0.868821
DOCKED: USER    NEWDPF axisangle0 -0.361251 -0.720993 0.591326 59.356242
DOCKED: USER    NEWDPF quat0 -0.361251 -0.720993 0.591326 59.356242
DOCKED: USER    NEWDPF dihe0 -21.76 156.53 139.56 -63.84 176.51 180.00 -132.08 -93.45 -5.01 
DOCKED: USER  keepresnum = 1 
DOCKED: USER  
DOCKED: REMARK  Name = 
DOCKED: REMARK  11 active torsions:
DOCKED: REMARK  status: ('A' for Active; 'I' for Inactive)
DOCKED: REMARK    1  A    between atoms: C_2  and  O_3
DOCKED: REMARK    2  A    between atoms: O_3  and  C_4
DOCKED: REMARK    3  A    between atoms: C_4  and  C_5
DOCKED: REMARK    4  A    between atoms: C_10  and  C_11
DOCKED: REMARK    5  A    between atoms: C_11  and  N_12
DOCKED: REMARK    6  A    between atoms: N_12  and  C_13
DOCKED: REMARK    7  A    between atoms: N_12  and  C_15
DOCKED: REMARK    8  A    between atoms: C_13  and  C_14
DOCKED: REMARK    9  A    between atoms: C_15  and  C_16
DOCKED: REMARK   10  A    between atoms: N_21  and  C_22
DOCKED: REMARK   11  A    between atoms: C_25  and  C_26
DOCKED: REMARK                            x       y       z     vdW  Elec       q    Type
DOCKED: REMARK                         _______ _______ _______ _____ _____    ______ ____
DOCKED: USER                              x       y       z     vdW  Elec       q    Type
DOCKED: USER                           _______ _______ _______ _____ _____    ______ ____
DOCKED: ROOT
DOCKED: ATOM      1  C   UNL     1      36.746  16.744 121.445 -0.20 -0.00    +0.000 C 
DOCKED: ENDROOT
DOCKED: BRANCH   1   2
DOCKED: ATOM      2  C   UNL     1      36.042  17.280 122.658 -0.24 -0.00    +0.000 A 
DOCKED: ATOM      3  C   UNL     1      36.133  18.638 122.995 -0.19 -0.00    +0.000 A 
DOCKED: ATOM      4  C   UNL     1      35.490  19.129 124.136 -0.20 -0.00    +0.000 A 
DOCKED: ATOM      5  C   UNL     1      34.760  18.263 124.963 -0.30 -0.00    +0.000 A 
DOCKED: ATOM      6  C   UNL     1      34.119  18.745 126.115 -0.26 -0.00    +0.000 A 
DOCKED: ATOM      7  C   UNL     1      33.418  17.869 126.958 -0.30 -0.00    +0.000 A 
DOCKED: ATOM      8  C   UNL     1      33.325  16.510 126.618 -0.31 -0.00    +0.000 A 
DOCKED: ATOM      9  C   UNL     1      33.953  16.022 125.468 -0.36 -0.00    +0.000 A 
DOCKED: ATOM     10  C   UNL     1      34.677  16.889 124.636 -0.41 -0.00    +0.000 A 
DOCKED: ATOM     11  C   UNL     1      35.317  16.407 123.485 -0.38 -0.00    +0.000 A 
DOCKED: ATOM     12  CM  UNL     1      35.403  17.768 123.812 -0.14 -0.00    +0.000 AC
DOCKED: ATOM     13  CM  UNL     1      34.042  17.383 125.793 -0.18 -0.00    +0.000 AC
DOCKED: BRANCH   7  12
DOCKED: ATOM     14  C   UNL     1      32.723  18.396 128.188 -0.23 -0.00    +0.000 C 
DOCKED: BRANCH  12  13
DOCKED: ATOM     15  N   UNL     1      31.295  18.010 128.197 -0.31 -0.00    +0.000 N 
DOCKED: ATOM     16  H   UNL     1      31.131  17.774 127.218 -0.53 -0.00    +0.000 HD
DOCKED: BRANCH  13  15
DOCKED: ATOM     17  C   UNL     1      31.007  16.761 128.933 -0.48 -0.00    +0.000 C 
DOCKED: ATOM     18  C   UNL     1      31.606  16.723 130.341 -0.40 -0.00    +0.000 C 
DOCKED: ENDBRANCH  13  15
DOCKED: BRANCH  13  17
DOCKED: ATOM     19  C   UNL     1      30.306  19.101 128.394 -0.34 -0.00    +0.000 C 
DOCKED: ATOM     20  C   UNL     1      29.383  19.359 127.196 -0.53 -0.00    +0.000 C 
DOCKED: ENDBRANCH  13  17
DOCKED: ENDBRANCH  12  13
DOCKED: ENDBRANCH   7  12
DOCKED: ENDBRANCH   1   2
DOCKED: BRANCH   1  19
DOCKED: ATOM     21  O   UNL     1      37.921  16.052 121.852 -0.22 -0.00    +0.000 OA
DOCKED: BRANCH  19  21
DOCKED: ATOM     22  O   UNL     1      38.483  14.371 123.328 -0.47 -0.00    +0.000 OA
DOCKED: ATOM     23  C   UNL     1      37.909  14.714 122.258 -0.41 -0.00    +0.000 C 
DOCKED: ATOM     24  N   UNL     1      37.279  13.737 121.419 -0.37 -0.00    +0.000 N 
DOCKED: ATOM     25  H   UNL     1      36.949  14.030 120.539 -0.01 -0.00    +0.000 HD
DOCKED: BRANCH  22  24
DOCKED: ATOM     26  C   UNL     1      37.094  12.357 121.778 -0.49 -0.00    +0.000 A 
DOCKED: ATOM     27  C   UNL     1      36.831  12.024 123.115 -0.59 -0.00    +0.000 A 
DOCKED: ATOM     28  C   UNL     1      36.674  10.689 123.497 -0.49 -0.00    +0.000 A 
DOCKED: ATOM     29  C   UNL     1      36.799   9.656 122.549 -0.59 -0.00    +0.000 A 
DOCKED: ATOM     30  C   UNL     1      37.069   9.993 121.211 -0.13 -0.00    +0.000 A 
DOCKED: ATOM     31  C   UNL     1      37.226  11.329 120.831 -0.30 -0.00    +0.000 A 
DOCKED: ATOM     32  CM  UNL     1      36.949  11.007 122.163 +0.00 -0.00    +0.000 AC
DOCKED: BRANCH  27  30
DOCKED: ATOM     33  C   UNL     1      36.638   8.231 122.936 -0.78 -0.00    +0.000 C 
DOCKED: ATOM     34  N   UNL     1      35.587   7.424 122.392 -0.63 -0.00    +0.000 N 
DOCKED: ATOM     35  O   UNL     1      35.525   6.104 122.681 -0.84 -0.00    +0.000 OA
DOCKED: ATOM     36  O   UNL     1      37.432   7.720 123.772 -2.40 -0.00    +0.000 OA
DOCKED: ATOM     37  H   UNL     1      34.909   7.831 121.807 -0.00 -0.00    +0.000 HD
DOCKED: ENDBRANCH  27  30
DOCKED: ENDBRANCH  22  24
DOCKED: ENDBRANCH  19  21
DOCKED: ENDBRANCH   1  19
DOCKED: TORSDOF 9DOCKED: TER
DOCKED: ENDMDL
________________________________________________________________________________


	BEGINNING GENETIC ALGORITHM DOCKING 92 of 100
Run: 92 Seed: 1723228343 296254678 [ Run 92 of 100 GA/GALS ]
Beginning LAMARCKIAN GENETIC ALGORITHM (LGA), with a maximum of 2500000 energy evaluations.

Final-Value: -16.056


	FINAL GENETIC ALGORITHM DOCKED STATE
	_______________________________________________


Detailed state:  trans 38.005 16.618 121.760 quatxyzw -0.074704 0.877176 -0.425494 0.209611 center 1.619 0.086 0.013 ntor 9 22.3049 179.4703 -179.9753 21.5335 1.3107 96.4791 -52.0249 -126.4495 -50.8280
State:	 38.005  16.618 121.760  -0.076  0.897 -0.435 155.801     22.30  179.47 -179.98   21.53    1.31   96.48  -52.02 -126.45  -50.83

DOCKED: MODEL       92
DOCKED: USER    Run = 92
DOCKED: USER    DPF = ligand_dock.biased.dpf
DOCKED: USER  
DOCKED: USER    Estimated Free Energy of Binding    =  -11.77 kcal/mol  [=(1)+(2)+(3)-(4)]
DOCKED: USER    Estimated Inhibition Constant, Ki   =    2.37 nM (nanomolar)  [Temperature = 298.15 K]
DOCKED: USER    
DOCKED: USER    (1) Final Intermolecular Energy     =  -14.45 kcal/mol
DOCKED: USER        vdW + Hbond + desolv Energy     =  -14.45 kcal/mol
DOCKED: USER        Electrostatic Energy            =   +0.00 kcal/mol
DOCKED: USER    (2) Final Total Internal Energy     =   -1.60 kcal/mol
DOCKED: USER    (3) Torsional Free Energy           =   +2.68 kcal/mol
DOCKED: USER    (4) Unbound System's Energy  [=(2)] =   -1.60 kcal/mol
DOCKED: USER    
DOCKED: USER    
DOCKED: USER    NEWDPF move ligand.dum.pdbqt
DOCKED: USER    NEWDPF about 1.619000 0.086000 0.013000
DOCKED: USER    NEWDPF tran0 38.004549 16.617657 121.760016
DOCKED: USER    NEWDPF quaternion0 -0.074704 0.877176 -0.425494 0.209611
DOCKED: USER    NEWDPF axisangle0 -0.076401 0.897105 -0.435161 155.800893
DOCKED: USER    NEWDPF quat0 -0.076401 0.897105 -0.435161 155.800893
DOCKED: USER    NEWDPF dihe0 22.30 179.47 -179.98 21.53 1.31 96.48 -52.02 -126.45 -50.83 
DOCKED: USER  keepresnum = 1 
DOCKED: USER  
DOCKED: REMARK  Name = 
DOCKED: REMARK  11 active torsions:
DOCKED: REMARK  status: ('A' for Active; 'I' for Inactive)
DOCKED: REMARK    1  A    between atoms: C_2  and  O_3
DOCKED: REMARK    2  A    between atoms: O_3  and  C_4
DOCKED: REMARK    3  A    between atoms: C_4  and  C_5
DOCKED: REMARK    4  A    between atoms: C_10  and  C_11
DOCKED: REMARK    5  A    between atoms: C_11  and  N_12
DOCKED: REMARK    6  A    between atoms: N_12  and  C_13
DOCKED: REMARK    7  A    between atoms: N_12  and  C_15
DOCKED: REMARK    8  A    between atoms: C_13  and  C_14
DOCKED: REMARK    9  A    between atoms: C_15  and  C_16
DOCKED: REMARK   10  A    between atoms: N_21  and  C_22
DOCKED: REMARK   11  A    between atoms: C_25  and  C_26
DOCKED: REMARK                            x       y       z     vdW  Elec       q    Type
DOCKED: REMARK                         _______ _______ _______ _____ _____    ______ ____
DOCKED: USER                              x       y       z     vdW  Elec       q    Type
DOCKED: USER                           _______ _______ _______ _____ _____    ______ ____
DOCKED: ROOT
DOCKED: ATOM      1  C   UNL     1      38.496  18.255 123.438 -0.16 -0.00    +0.000 C 
DOCKED: ENDROOT
DOCKED: BRANCH   1   2
DOCKED: ATOM      2  C   UNL     1      39.755  18.094 122.634 -0.12 -0.00    +0.000 A 
DOCKED: ATOM      3  C   UNL     1      39.773  18.408 121.267 -0.05 -0.00    +0.000 A 
DOCKED: ATOM      4  C   UNL     1      40.942  18.239 120.518 -0.04 -0.00    +0.000 A 
DOCKED: ATOM      5  C   UNL     1      42.104  17.741 121.125 -0.11 -0.00    +0.000 A 
DOCKED: ATOM      6  C   UNL     1      43.279  17.559 120.379 -0.10 -0.00    +0.000 A 
DOCKED: ATOM      7  C   UNL     1      44.430  17.027 120.982 -0.18 -0.00    +0.000 A 
DOCKED: ATOM      8  C   UNL     1      44.410  16.716 122.352 -0.28 -0.00    +0.000 A 
DOCKED: ATOM      9  C   UNL     1      43.246  16.901 123.104 -0.33 -0.00    +0.000 A 
DOCKED: ATOM     10  C   UNL     1      42.087  17.408 122.500 -0.25 -0.00    +0.000 A 
DOCKED: ATOM     11  C   UNL     1      40.912  17.588 123.246 -0.24 -0.00    +0.000 A 
DOCKED: ATOM     12  CM  UNL     1      40.929  17.913 121.881 +0.00 -0.00    +0.000 AC
DOCKED: ATOM     13  CM  UNL     1      43.259  17.225 121.740 +0.00 -0.00    +0.000 AC
DOCKED: BRANCH   7  12
DOCKED: ATOM     14  C   UNL     1      45.691  16.846 120.177 -0.18 +0.00    +0.000 C 
DOCKED: BRANCH  12  13
DOCKED: ATOM     15  N   UNL     1      45.413  16.140 118.907 -0.19 -0.00    +0.000 N 
DOCKED: ATOM     16  H   UNL     1      44.841  16.821 118.405 +0.01 -0.00    +0.000 HD
DOCKED: BRANCH  13  15
DOCKED: ATOM     17  C   UNL     1      46.599  15.945 118.046 -0.23 -0.00    +0.000 C 
DOCKED: ATOM     18  C   UNL     1      47.282  14.589 118.237 -0.41 +0.00    +0.000 C 
DOCKED: ENDBRANCH  13  15
DOCKED: BRANCH  13  17
DOCKED: ATOM     19  C   UNL     1      44.483  14.983 118.972 -0.38 -0.00    +0.000 C 
DOCKED: ATOM     20  C   UNL     1      43.467  14.906 117.824 -0.27 -0.00    +0.000 C 
DOCKED: ENDBRANCH  13  17
DOCKED: ENDBRANCH  12  13
DOCKED: ENDBRANCH   7  12
DOCKED: ENDBRANCH   1   2
DOCKED: BRANCH   1  19
DOCKED: ATOM     21  O   UNL     1      37.459  17.482 122.846 -0.18 -0.00    +0.000 OA
DOCKED: BRANCH  19  21
DOCKED: ATOM     22  O   UNL     1      38.602  15.741 121.853 -0.25 -0.00    +0.000 OA
DOCKED: ATOM     23  C   UNL     1      37.609  16.128 122.529 -0.28 -0.00    +0.000 C 
DOCKED: ATOM     24  N   UNL     1      36.598  15.200 122.942 -0.37 -0.00    +0.000 N 
DOCKED: ATOM     25  H   UNL     1      35.784  15.562 123.362 -0.01 -0.00    +0.000 HD
DOCKED: BRANCH  22  24
DOCKED: ATOM     26  C   UNL     1      36.693  13.774 122.785 -0.46 -0.00    +0.000 A 
DOCKED: ATOM     27  C   UNL     1      37.069  13.242 121.543 -0.41 -0.00    +0.000 A 
DOCKED: ATOM     28  C   UNL     1      37.144  11.860 121.355 -0.47 -0.00    +0.000 A 
DOCKED: ATOM     29  C   UNL     1      36.821  10.978 122.403 -0.55 -0.00    +0.000 A 
DOCKED: ATOM     30  C   UNL     1      36.437  11.514 123.645 -0.62 -0.00    +0.000 A 
DOCKED: ATOM     31  C   UNL     1      36.363  12.897 123.831 -0.55 -0.00    +0.000 A 
DOCKED: ATOM     32  CM  UNL     1      36.754  12.377 122.594 +0.00 -0.00    +0.000 AC
DOCKED: BRANCH  27  30
DOCKED: ATOM     33  C   UNL     1      36.892   9.506 122.222 -0.66 -0.00    +0.000 C 
DOCKED: ATOM     34  N   UNL     1      37.033   8.622 123.339 -0.67 -0.00    +0.000 N 
DOCKED: ATOM     35  O   UNL     1      36.991   7.283 123.156 -2.25 -0.00    +0.000 OA
DOCKED: ATOM     36  O   UNL     1      36.841   9.020 121.059 -2.65 -0.00    +0.000 OA
DOCKED: ATOM     37  H   UNL     1      37.161   8.990 124.243 -0.57 -0.00    +0.000 HD
DOCKED: ENDBRANCH  27  30
DOCKED: ENDBRANCH  22  24
DOCKED: ENDBRANCH  19  21
DOCKED: ENDBRANCH   1  19
DOCKED: TORSDOF 9DOCKED: TER
DOCKED: ENDMDL
________________________________________________________________________________


	BEGINNING GENETIC ALGORITHM DOCKING 93 of 100
Run: 93 Seed: 1951928560 1893574704 [ Run 93 of 100 GA/GALS ]
Beginning LAMARCKIAN GENETIC ALGORITHM (LGA), with a maximum of 2500000 energy evaluations.

Final-Value: -17.253


	FINAL GENETIC ALGORITHM DOCKED STATE
	_______________________________________________


Detailed state:  trans 36.494 16.389 123.829 quatxyzw 0.373483 -0.261643 0.859783 -0.229839 center 1.619 0.086 0.013 ntor 9 -12.8591 61.3320 -15.0553 -50.9521 -85.8393 114.1597 -120.8493 136.5423 163.0791
State:	 36.494  16.389 123.829   0.384 -0.269  0.883 -153.425    -12.86   61.33  -15.06  -50.95  -85.84  114.16 -120.85  136.54  163.08

DOCKED: MODEL       93
DOCKED: USER    Run = 93
DOCKED: USER    DPF = ligand_dock.biased.dpf
DOCKED: USER  
DOCKED: USER    Estimated Free Energy of Binding    =  -12.41 kcal/mol  [=(1)+(2)+(3)-(4)]
DOCKED: USER    Estimated Inhibition Constant, Ki   =  805.94 pM (picomolar)  [Temperature = 298.15 K]
DOCKED: USER    
DOCKED: USER    (1) Final Intermolecular Energy     =  -15.09 kcal/mol
DOCKED: USER        vdW + Hbond + desolv Energy     =  -15.09 kcal/mol
DOCKED: USER        Electrostatic Energy            =   +0.00 kcal/mol
DOCKED: USER    (2) Final Total Internal Energy     =   -2.16 kcal/mol
DOCKED: USER    (3) Torsional Free Energy           =   +2.68 kcal/mol
DOCKED: USER    (4) Unbound System's Energy  [=(2)] =   -2.16 kcal/mol
DOCKED: USER    
DOCKED: USER    
DOCKED: USER    NEWDPF move ligand.dum.pdbqt
DOCKED: USER    NEWDPF about 1.619000 0.086000 0.013000
DOCKED: USER    NEWDPF tran0 36.493859 16.389086 123.829111
DOCKED: USER    NEWDPF quaternion0 0.373483 -0.261643 0.859783 -0.229839
DOCKED: USER    NEWDPF axisangle0 0.383757 -0.268840 0.883434 -153.424757
DOCKED: USER    NEWDPF quat0 0.383757 -0.268840 0.883434 -153.424757
DOCKED: USER    NEWDPF dihe0 -12.86 61.33 -15.06 -50.95 -85.84 114.16 -120.85 136.54 163.08 
DOCKED: USER  keepresnum = 1 
DOCKED: USER  
DOCKED: REMARK  Name = 
DOCKED: REMARK  11 active torsions:
DOCKED: REMARK  status: ('A' for Active; 'I' for Inactive)
DOCKED: REMARK    1  A    between atoms: C_2  and  O_3
DOCKED: REMARK    2  A    between atoms: O_3  and  C_4
DOCKED: REMARK    3  A    between atoms: C_4  and  C_5
DOCKED: REMARK    4  A    between atoms: C_10  and  C_11
DOCKED: REMARK    5  A    between atoms: C_11  and  N_12
DOCKED: REMARK    6  A    between atoms: N_12  and  C_13
DOCKED: REMARK    7  A    between atoms: N_12  and  C_15
DOCKED: REMARK    8  A    between atoms: C_13  and  C_14
DOCKED: REMARK    9  A    between atoms: C_15  and  C_16
DOCKED: REMARK   10  A    between atoms: N_21  and  C_22
DOCKED: REMARK   11  A    between atoms: C_25  and  C_26
DOCKED: REMARK                            x       y       z     vdW  Elec       q    Type
DOCKED: REMARK                         _______ _______ _______ _____ _____    ______ ____
DOCKED: USER                              x       y       z     vdW  Elec       q    Type
DOCKED: USER                           _______ _______ _______ _____ _____    ______ ____
DOCKED: ROOT
DOCKED: ATOM      1  C   UNL     1      35.242  18.166 122.822 -0.31 -0.00    +0.000 C 
DOCKED: ENDROOT
DOCKED: BRANCH   1   2
DOCKED: ATOM      2  C   UNL     1      36.204  17.689 121.772 -0.19 -0.00    +0.000 A 
DOCKED: ATOM      3  C   UNL     1      37.521  18.168 121.741 -0.10 -0.00    +0.000 A 
DOCKED: ATOM      4  C   UNL     1      38.409  17.735 120.750 -0.06 -0.00    +0.000 A 
DOCKED: ATOM      5  C   UNL     1      37.983  16.827 119.769 -0.09 -0.00    +0.000 A 
DOCKED: ATOM      6  C   UNL     1      38.864  16.395 118.766 -0.10 -0.00    +0.000 A 
DOCKED: ATOM      7  C   UNL     1      38.424  15.513 117.766 -0.15 -0.00    +0.000 A 
DOCKED: ATOM      8  C   UNL     1      37.106  15.032 117.801 -0.22 -0.00    +0.000 A 
DOCKED: ATOM      9  C   UNL     1      36.224  15.451 118.802 -0.13 -0.00    +0.000 A 
DOCKED: ATOM     10  C   UNL     1      36.651  16.352 119.787 -0.15 -0.00    +0.000 A 
DOCKED: ATOM     11  C   UNL     1      35.770  16.785 120.790 -0.10 -0.00    +0.000 A 
DOCKED: ATOM     12  CM  UNL     1      37.090  17.260 120.769 +0.00 -0.00    +0.000 AC
DOCKED: ATOM     13  CM  UNL     1      37.542  15.928 118.781 +0.00 -0.00    +0.000 AC
DOCKED: BRANCH   7  12
DOCKED: ATOM     14  C   UNL     1      39.379  15.043 116.698 -0.22 -0.00    +0.000 C 
DOCKED: BRANCH  12  13
DOCKED: ATOM     15  N   UNL     1      38.737  15.064 115.366 -0.23 -0.00    +0.000 N 
DOCKED: ATOM     16  H   UNL     1      37.773  15.308 115.596 +0.00 -0.00    +0.000 HD
DOCKED: BRANCH  13  15
DOCKED: ATOM     17  C   UNL     1      39.196  16.159 114.485 -0.17 -0.00    +0.000 C 
DOCKED: ATOM     18  C   UNL     1      40.699  16.131 114.200 -0.22 -0.00    +0.000 C 
DOCKED: ENDBRANCH  13  15
DOCKED: BRANCH  13  17
DOCKED: ATOM     19  C   UNL     1      38.543  13.753 114.694 -0.34 -0.00    +0.000 C 
DOCKED: ATOM     20  C   UNL     1      38.588  12.536 115.629 -0.52 -0.00    +0.000 C 
DOCKED: ENDBRANCH  13  17
DOCKED: ENDBRANCH  12  13
DOCKED: ENDBRANCH   7  12
DOCKED: ENDBRANCH   1   2
DOCKED: BRANCH   1  19
DOCKED: ATOM     21  O   UNL     1      35.341  17.325 123.966 -0.34 -0.00    +0.000 OA
DOCKED: BRANCH  19  21
DOCKED: ATOM     22  O   UNL     1      34.489  15.234 124.442 -0.67 -0.00    +0.000 OA
DOCKED: ATOM     23  C   UNL     1      35.380  15.930 123.880 -0.49 -0.00    +0.000 C 
DOCKED: ATOM     24  N   UNL     1      36.468  15.305 123.185 -0.39 -0.00    +0.000 N 
DOCKED: ATOM     25  H   UNL     1      37.201  15.881 122.866 -0.00 -0.00    +0.000 HD
DOCKED: BRANCH  22  24
DOCKED: ATOM     26  C   UNL     1      36.560  13.895 122.923 -0.45 -0.00    +0.000 A 
DOCKED: ATOM     27  C   UNL     1      35.987  12.989 123.827 -0.53 -0.00    +0.000 A 
DOCKED: ATOM     28  C   UNL     1      36.084  11.612 123.611 -0.61 -0.00    +0.000 A 
DOCKED: ATOM     29  C   UNL     1      36.778  11.112 122.493 -0.56 -0.00    +0.000 A 
DOCKED: ATOM     30  C   UNL     1      37.358  12.023 121.592 -0.43 -0.00    +0.000 A 
DOCKED: ATOM     31  C   UNL     1      37.259  13.400 121.810 -0.42 -0.00    +0.000 A 
DOCKED: ATOM     32  CM  UNL     1      36.672  12.505 122.709 +0.00 -0.00    +0.000 AC
DOCKED: BRANCH  27  30
DOCKED: ATOM     33  C   UNL     1      36.895   9.652 122.247 -0.64 -0.00    +0.000 C 
DOCKED: ATOM     34  N   UNL     1      37.066   8.724 123.325 -0.66 -0.00    +0.000 N 
DOCKED: ATOM     35  O   UNL     1      37.066   7.394 123.083 -2.35 -0.00    +0.000 OA
DOCKED: ATOM     36  O   UNL     1      36.857   9.216 121.064 -2.66 -0.00    +0.000 OA
DOCKED: ATOM     37  H   UNL     1      37.185   9.057 124.243 -0.58 -0.00    +0.000 HD
DOCKED: ENDBRANCH  27  30
DOCKED: ENDBRANCH  22  24
DOCKED: ENDBRANCH  19  21
DOCKED: ENDBRANCH   1  19
DOCKED: TORSDOF 9DOCKED: TER
DOCKED: ENDMDL
________________________________________________________________________________


	BEGINNING GENETIC ALGORITHM DOCKING 94 of 100
Run: 94 Seed: 1609507512 1031418568 [ Run 94 of 100 GA/GALS ]
Beginning LAMARCKIAN GENETIC ALGORITHM (LGA), with a maximum of 2500000 energy evaluations.

Final-Value: -16.985


	FINAL GENETIC ALGORITHM DOCKED STATE
	_______________________________________________


Detailed state:  trans 37.546 17.190 120.132 quatxyzw -0.926212 0.066329 -0.344710 0.137503 center 1.619 0.086 0.013 ntor 9 -137.7156 168.8309 8.7300 152.8356 172.2393 -92.5721 167.4102 110.5355 -124.8602
State:	 37.546  17.190 120.132  -0.935  0.067 -0.348 164.193   -137.72  168.83    8.73  152.84  172.24  -92.57  167.41  110.54 -124.86

DOCKED: MODEL       94
DOCKED: USER    Run = 94
DOCKED: USER    DPF = ligand_dock.biased.dpf
DOCKED: USER  
DOCKED: USER    Estimated Free Energy of Binding    =  -12.55 kcal/mol  [=(1)+(2)+(3)-(4)]
DOCKED: USER    Estimated Inhibition Constant, Ki   =  628.62 pM (picomolar)  [Temperature = 298.15 K]
DOCKED: USER    
DOCKED: USER    (1) Final Intermolecular Energy     =  -15.24 kcal/mol
DOCKED: USER        vdW + Hbond + desolv Energy     =  -15.24 kcal/mol
DOCKED: USER        Electrostatic Energy            =   +0.00 kcal/mol
DOCKED: USER    (2) Final Total Internal Energy     =   -1.75 kcal/mol
DOCKED: USER    (3) Torsional Free Energy           =   +2.68 kcal/mol
DOCKED: USER    (4) Unbound System's Energy  [=(2)] =   -1.75 kcal/mol
DOCKED: USER    
DOCKED: USER    
DOCKED: USER    NEWDPF move ligand.dum.pdbqt
DOCKED: USER    NEWDPF about 1.619000 0.086000 0.013000
DOCKED: USER    NEWDPF tran0 37.546002 17.190114 120.132157
DOCKED: USER    NEWDPF quaternion0 -0.926212 0.066329 -0.344710 0.137503
DOCKED: USER    NEWDPF axisangle0 -0.935094 0.066965 -0.348016 164.193213
DOCKED: USER    NEWDPF quat0 -0.935094 0.066965 -0.348016 164.193213
DOCKED: USER    NEWDPF dihe0 -137.72 168.83 8.73 152.84 172.24 -92.57 167.41 110.54 -124.86 
DOCKED: USER  keepresnum = 1 
DOCKED: USER  
DOCKED: REMARK  Name = 
DOCKED: REMARK  11 active torsions:
DOCKED: REMARK  status: ('A' for Active; 'I' for Inactive)
DOCKED: REMARK    1  A    between atoms: C_2  and  O_3
DOCKED: REMARK    2  A    between atoms: O_3  and  C_4
DOCKED: REMARK    3  A    between atoms: C_4  and  C_5
DOCKED: REMARK    4  A    between atoms: C_10  and  C_11
DOCKED: REMARK    5  A    between atoms: C_11  and  N_12
DOCKED: REMARK    6  A    between atoms: N_12  and  C_13
DOCKED: REMARK    7  A    between atoms: N_12  and  C_15
DOCKED: REMARK    8  A    between atoms: C_13  and  C_14
DOCKED: REMARK    9  A    between atoms: C_15  and  C_16
DOCKED: REMARK   10  A    between atoms: N_21  and  C_22
DOCKED: REMARK   11  A    between atoms: C_25  and  C_26
DOCKED: REMARK                            x       y       z     vdW  Elec       q    Type
DOCKED: REMARK                         _______ _______ _______ _____ _____    ______ ____
DOCKED: USER                              x       y       z     vdW  Elec       q    Type
DOCKED: USER                           _______ _______ _______ _____ _____    ______ ____
DOCKED: ROOT
DOCKED: ATOM      1  C   UNL     1      36.431  18.196 121.999 -0.19 -0.00    +0.000 C 
DOCKED: ENDROOT
DOCKED: BRANCH   1   2
DOCKED: ATOM      2  C   UNL     1      35.406  18.101 120.905 -0.23 -0.00    +0.000 A 
DOCKED: ATOM      3  C   UNL     1      35.789  17.786 119.593 -0.15 -0.00    +0.000 A 
DOCKED: ATOM      4  C   UNL     1      34.833  17.716 118.574 -0.15 -0.00    +0.000 A 
DOCKED: ATOM      5  C   UNL     1      33.484  17.975 118.854 -0.15 -0.00    +0.000 A 
DOCKED: ATOM      6  C   UNL     1      32.519  17.917 117.836 -0.18 -0.00    +0.000 A 
DOCKED: ATOM      7  C   UNL     1      31.174  18.211 118.113 -0.24 -0.00    +0.000 A 
DOCKED: ATOM      8  C   UNL     1      30.793  18.523 119.427 -0.43 -0.00    +0.000 A 
DOCKED: ATOM      9  C   UNL     1      31.746  18.576 120.449 -0.42 -0.00    +0.000 A 
DOCKED: ATOM     10  C   UNL     1      33.094  18.308 120.172 -0.33 -0.00    +0.000 A 
DOCKED: ATOM     11  C   UNL     1      34.058  18.367 121.190 -0.23 -0.00    +0.000 A 
DOCKED: ATOM     12  CM  UNL     1      34.444  18.042 119.881 +0.00 -0.00    +0.000 AC
DOCKED: ATOM     13  CM  UNL     1      32.135  18.252 119.142 +0.00 -0.00    +0.000 AC
DOCKED: BRANCH   7  12
DOCKED: ATOM     14  C   UNL     1      30.142  18.135 117.016 -0.18 -0.00    +0.000 C 
DOCKED: BRANCH  12  13
DOCKED: ATOM     15  N   UNL     1      29.076  17.168 117.358 -0.26 -0.00    +0.000 N 
DOCKED: ATOM     16  H   UNL     1      28.649  16.990 116.448 -0.00 -0.00    +0.000 HD
DOCKED: BRANCH  13  15
DOCKED: ATOM     17  C   UNL     1      29.572  15.847 117.800 -0.37 -0.00    +0.000 C 
DOCKED: ATOM     18  C   UNL     1      30.311  15.069 116.707 -0.40 -0.00    +0.000 C 
DOCKED: ENDBRANCH  13  15
DOCKED: BRANCH  13  17
DOCKED: ATOM     19  C   UNL     1      27.913  17.692 118.119 -0.38 -0.00    +0.000 C 
DOCKED: ATOM     20  C   UNL     1      26.544  17.385 117.497 -0.30 -0.00    +0.000 C 
DOCKED: ENDBRANCH  13  17
DOCKED: ENDBRANCH  12  13
DOCKED: ENDBRANCH   7  12
DOCKED: ENDBRANCH   1   2
DOCKED: BRANCH   1  19
DOCKED: ATOM     21  O   UNL     1      37.630  17.556 121.575 -0.12 -0.00    +0.000 OA
DOCKED: BRANCH  19  21
DOCKED: ATOM     22  O   UNL     1      38.744  15.665 120.865 -0.21 -0.00    +0.000 OA
DOCKED: ATOM     23  C   UNL     1      37.745  16.169 121.448 -0.21 -0.00    +0.000 C 
DOCKED: ATOM     24  N   UNL     1      36.689  15.335 121.946 -0.27 -0.00    +0.000 N 
DOCKED: ATOM     25  H   UNL     1      35.876  15.776 122.285 -0.01 -0.00    +0.000 HD
DOCKED: BRANCH  22  24
DOCKED: ATOM     26  C   UNL     1      36.740  13.899 121.985 -0.29 -0.00    +0.000 A 
DOCKED: ATOM     27  C   UNL     1      36.580  13.238 123.211 -0.53 -0.00    +0.000 A 
DOCKED: ATOM     28  C   UNL     1      36.651  11.844 123.283 -0.62 -0.00    +0.000 A 
DOCKED: ATOM     29  C   UNL     1      36.907  11.083 122.127 -0.51 -0.00    +0.000 A 
DOCKED: ATOM     30  C   UNL     1      37.074  11.749 120.900 -0.44 -0.00    +0.000 A 
DOCKED: ATOM     31  C   UNL     1      37.002  13.143 120.831 -0.37 -0.00    +0.000 A 
DOCKED: ATOM     32  CM  UNL     1      36.826  12.492 122.056 +0.00 -0.00    +0.000 AC
DOCKED: BRANCH  27  30
DOCKED: ATOM     33  C   UNL     1      36.989   9.601 122.183 -0.62 -0.00    +0.000 C 
DOCKED: ATOM     34  N   UNL     1      37.099   8.905 123.429 -0.60 -0.00    +0.000 N 
DOCKED: ATOM     35  O   UNL     1      37.068   7.553 123.458 -2.58 -0.00    +0.000 OA
DOCKED: ATOM     36  O   UNL     1      36.975   8.938 121.110 -2.68 -0.00    +0.000 OA
DOCKED: ATOM     37  H   UNL     1      37.199   9.413 124.267 -0.59 -0.00    +0.000 HD
DOCKED: ENDBRANCH  27  30
DOCKED: ENDBRANCH  22  24
DOCKED: ENDBRANCH  19  21
DOCKED: ENDBRANCH   1  19
DOCKED: TORSDOF 9DOCKED: TER
DOCKED: ENDMDL
________________________________________________________________________________


	BEGINNING GENETIC ALGORITHM DOCKING 95 of 100
Run: 95 Seed: 458733346 982877039 [ Run 95 of 100 GA/GALS ]
Beginning LAMARCKIAN GENETIC ALGORITHM (LGA), with a maximum of 2500000 energy evaluations.

Final-Value: -16.696


	FINAL GENETIC ALGORITHM DOCKED STATE
	_______________________________________________


Detailed state:  trans 37.265 16.823 122.328 quatxyzw 0.133154 -0.911536 0.386749 -0.042393 center 1.619 0.086 0.013 ntor 9 59.4188 160.4436 -165.2895 -67.4811 145.3664 -76.8864 69.1456 -88.9259 8.0079
State:	 37.265  16.823 122.328   0.133 -0.912  0.387 -175.141     59.42  160.44 -165.29  -67.48  145.37  -76.89   69.15  -88.93    8.01

DOCKED: MODEL       95
DOCKED: USER    Run = 95
DOCKED: USER    DPF = ligand_dock.biased.dpf
DOCKED: USER  
DOCKED: USER    Estimated Free Energy of Binding    =  -12.32 kcal/mol  [=(1)+(2)+(3)-(4)]
DOCKED: USER    Estimated Inhibition Constant, Ki   =  936.37 pM (picomolar)  [Temperature = 298.15 K]
DOCKED: USER    
DOCKED: USER    (1) Final Intermolecular Energy     =  -15.00 kcal/mol
DOCKED: USER        vdW + Hbond + desolv Energy     =  -15.00 kcal/mol
DOCKED: USER        Electrostatic Energy            =   +0.00 kcal/mol
DOCKED: USER    (2) Final Total Internal Energy     =   -1.69 kcal/mol
DOCKED: USER    (3) Torsional Free Energy           =   +2.68 kcal/mol
DOCKED: USER    (4) Unbound System's Energy  [=(2)] =   -1.69 kcal/mol
DOCKED: USER    
DOCKED: USER    
DOCKED: USER    NEWDPF move ligand.dum.pdbqt
DOCKED: USER    NEWDPF about 1.619000 0.086000 0.013000
DOCKED: USER    NEWDPF tran0 37.264740 16.822540 122.327631
DOCKED: USER    NEWDPF quaternion0 0.133154 -0.911536 0.386749 -0.042393
DOCKED: USER    NEWDPF axisangle0 0.133274 -0.912356 0.387097 -175.140624
DOCKED: USER    NEWDPF quat0 0.133274 -0.912356 0.387097 -175.140624
DOCKED: USER    NEWDPF dihe0 59.42 160.44 -165.29 -67.48 145.37 -76.89 69.15 -88.93 8.01 
DOCKED: USER  keepresnum = 1 
DOCKED: USER  
DOCKED: REMARK  Name = 
DOCKED: REMARK  11 active torsions:
DOCKED: REMARK  status: ('A' for Active; 'I' for Inactive)
DOCKED: REMARK    1  A    between atoms: C_2  and  O_3
DOCKED: REMARK    2  A    between atoms: O_3  and  C_4
DOCKED: REMARK    3  A    between atoms: C_4  and  C_5
DOCKED: REMARK    4  A    between atoms: C_10  and  C_11
DOCKED: REMARK    5  A    between atoms: C_11  and  N_12
DOCKED: REMARK    6  A    between atoms: N_12  and  C_13
DOCKED: REMARK    7  A    between atoms: N_12  and  C_15
DOCKED: REMARK    8  A    between atoms: C_13  and  C_14
DOCKED: REMARK    9  A    between atoms: C_15  and  C_16
DOCKED: REMARK   10  A    between atoms: N_21  and  C_22
DOCKED: REMARK   11  A    between atoms: C_25  and  C_26
DOCKED: REMARK                            x       y       z     vdW  Elec       q    Type
DOCKED: REMARK                         _______ _______ _______ _____ _____    ______ ____
DOCKED: USER                              x       y       z     vdW  Elec       q    Type
DOCKED: USER                           _______ _______ _______ _____ _____    ______ ____
DOCKED: ROOT
DOCKED: ATOM      1  C   UNL     1      36.950  18.211 124.254 -0.21 -0.00    +0.000 C 
DOCKED: ENDROOT
DOCKED: BRANCH   1   2
DOCKED: ATOM      2  C   UNL     1      38.361  18.447 123.798 -0.15 -0.00    +0.000 A 
DOCKED: ATOM      3  C   UNL     1      38.790  19.734 123.438 -0.06 -0.00    +0.000 A 
DOCKED: ATOM      4  C   UNL     1      40.100  19.946 122.997 -0.04 -0.00    +0.000 A 
DOCKED: ATOM      5  C   UNL     1      40.994  18.871 122.896 -0.11 -0.00    +0.000 A 
DOCKED: ATOM      6  C   UNL     1      42.307  19.073 122.445 -0.11 -0.00    +0.000 A 
DOCKED: ATOM      7  C   UNL     1      43.189  17.988 122.313 -0.20 -0.00    +0.000 A 
DOCKED: ATOM      8  C   UNL     1      42.759  16.701 122.676 -0.37 -0.00    +0.000 A 
DOCKED: ATOM      9  C   UNL     1      41.455  16.492 123.134 -0.35 -0.00    +0.000 A 
DOCKED: ATOM     10  C   UNL     1      40.563  17.568 123.243 -0.23 -0.00    +0.000 A 
DOCKED: ATOM     11  C   UNL     1      39.250  17.366 123.693 -0.21 -0.00    +0.000 A 
DOCKED: ATOM     12  CM  UNL     1      39.676  18.656 123.344 +0.00 -0.00    +0.000 AC
DOCKED: ATOM     13  CM  UNL     1      41.878  17.782 122.784 +0.00 -0.00    +0.000 AC
DOCKED: BRANCH   7  12
DOCKED: ATOM     14  C   UNL     1      44.602  18.215 121.838 -0.18 -0.00    +0.000 C 
DOCKED: BRANCH  12  13
DOCKED: ATOM     15  N   UNL     1      45.527  18.365 122.983 -0.26 -0.00    +0.000 N 
DOCKED: ATOM     16  H   UNL     1      44.896  18.648 123.733 -0.20 -0.00    +0.000 HD
DOCKED: BRANCH  13  15
DOCKED: ATOM     17  C   UNL     1      46.121  17.096 123.456 -0.29 -0.00    +0.000 C 
DOCKED: ATOM     18  C   UNL     1      47.638  17.159 123.645 -0.47 -0.00    +0.000 C 
DOCKED: ENDBRANCH  13  15
DOCKED: BRANCH  13  17
DOCKED: ATOM     19  C   UNL     1      46.459  19.522 122.945 -0.18 -0.00    +0.000 C 
DOCKED: ATOM     20  C   UNL     1      46.295  20.520 124.099 -0.19 -0.00    +0.000 C 
DOCKED: ENDBRANCH  13  17
DOCKED: ENDBRANCH  12  13
DOCKED: ENDBRANCH   7  12
DOCKED: ENDBRANCH   1   2
DOCKED: BRANCH   1  19
DOCKED: ATOM     21  O   UNL     1      36.293  17.359 123.323 -0.25 -0.00    +0.000 OA
DOCKED: BRANCH  19  21
DOCKED: ATOM     22  O   UNL     1      35.682  15.387 124.353 -0.52 -0.00    +0.000 OA
DOCKED: ATOM     23  C   UNL     1      36.314  15.965 123.427 -0.39 -0.00    +0.000 C 
DOCKED: ATOM     24  N   UNL     1      37.101  15.210 122.496 -0.32 -0.00    +0.000 N 
DOCKED: ATOM     25  H   UNL     1      37.672  15.707 121.865 +0.00 -0.00    +0.000 HD
DOCKED: BRANCH  22  24
DOCKED: ATOM     26  C   UNL     1      37.112  13.774 122.420 -0.43 -0.00    +0.000 A 
DOCKED: ATOM     27  C   UNL     1      37.103  13.151 121.164 -0.41 -0.00    +0.000 A 
DOCKED: ATOM     28  C   UNL     1      37.087  11.758 121.061 -0.46 -0.00    +0.000 A 
DOCKED: ATOM     29  C   UNL     1      37.057  10.957 122.218 -0.48 -0.00    +0.000 A 
DOCKED: ATOM     30  C   UNL     1      37.060  11.584 123.477 -0.59 -0.00    +0.000 A 
DOCKED: ATOM     31  C   UNL     1      37.076  12.979 123.577 -0.48 -0.00    +0.000 A 
DOCKED: ATOM     32  CM  UNL     1      37.083  12.367 122.320 +0.00 -0.00    +0.000 AC
DOCKED: BRANCH  27  30
DOCKED: ATOM     33  C   UNL     1      37.038   9.475 122.130 -0.62 -0.00    +0.000 C 
DOCKED: ATOM     34  N   UNL     1      37.169   8.655 123.297 -0.65 -0.00    +0.000 N 
DOCKED: ATOM     35  O   UNL     1      37.045   7.312 123.202 -2.31 -0.00    +0.000 OA
DOCKED: ATOM     36  O   UNL     1      36.916   8.921 121.003 -2.67 -0.00    +0.000 OA
DOCKED: ATOM     37  H   UNL     1      37.352   9.071 124.170 -0.59 -0.00    +0.000 HD
DOCKED: ENDBRANCH  27  30
DOCKED: ENDBRANCH  22  24
DOCKED: ENDBRANCH  19  21
DOCKED: ENDBRANCH   1  19
DOCKED: TORSDOF 9DOCKED: TER
DOCKED: ENDMDL
________________________________________________________________________________


	BEGINNING GENETIC ALGORITHM DOCKING 96 of 100
Run: 96 Seed: 1125198056 1808575351 [ Run 96 of 100 GA/GALS ]
Beginning LAMARCKIAN GENETIC ALGORITHM (LGA), with a maximum of 2500000 energy evaluations.

Final-Value: -16.500


	FINAL GENETIC ALGORITHM DOCKED STATE
	_______________________________________________


Detailed state:  trans 36.735 16.673 122.416 quatxyzw -0.629065 0.191196 -0.720742 0.219662 center 1.619 0.086 0.013 ntor 9 -179.8086 -176.5849 -12.3296 -55.5125 179.8241 84.8956 -58.5526 120.3203 94.7790
State:	 36.735  16.673 122.416  -0.645  0.196 -0.739 154.622   -179.81 -176.58  -12.33  -55.51  179.82   84.90  -58.55  120.32   94.78

DOCKED: MODEL       96
DOCKED: USER    Run = 96
DOCKED: USER    DPF = ligand_dock.biased.dpf
DOCKED: USER  
DOCKED: USER    Estimated Free Energy of Binding    =  -12.36 kcal/mol  [=(1)+(2)+(3)-(4)]
DOCKED: USER    Estimated Inhibition Constant, Ki   =  874.98 pM (picomolar)  [Temperature = 298.15 K]
DOCKED: USER    
DOCKED: USER    (1) Final Intermolecular Energy     =  -15.04 kcal/mol
DOCKED: USER        vdW + Hbond + desolv Energy     =  -15.04 kcal/mol
DOCKED: USER        Electrostatic Energy            =   +0.00 kcal/mol
DOCKED: USER    (2) Final Total Internal Energy     =   -1.46 kcal/mol
DOCKED: USER    (3) Torsional Free Energy           =   +2.68 kcal/mol
DOCKED: USER    (4) Unbound System's Energy  [=(2)] =   -1.46 kcal/mol
DOCKED: USER    
DOCKED: USER    
DOCKED: USER    NEWDPF move ligand.dum.pdbqt
DOCKED: USER    NEWDPF about 1.619000 0.086000 0.013000
DOCKED: USER    NEWDPF tran0 36.734594 16.672972 122.416465
DOCKED: USER    NEWDPF quaternion0 -0.629065 0.191196 -0.720742 0.219662
DOCKED: USER    NEWDPF axisangle0 -0.644814 0.195983 -0.738786 154.621662
DOCKED: USER    NEWDPF quat0 -0.644814 0.195983 -0.738786 154.621662
DOCKED: USER    NEWDPF dihe0 -179.81 -176.58 -12.33 -55.51 179.82 84.90 -58.55 120.32 94.78 
DOCKED: USER  keepresnum = 1 
DOCKED: USER  
DOCKED: REMARK  Name = 
DOCKED: REMARK  11 active torsions:
DOCKED: REMARK  status: ('A' for Active; 'I' for Inactive)
DOCKED: REMARK    1  A    between atoms: C_2  and  O_3
DOCKED: REMARK    2  A    between atoms: O_3  and  C_4
DOCKED: REMARK    3  A    between atoms: C_4  and  C_5
DOCKED: REMARK    4  A    between atoms: C_10  and  C_11
DOCKED: REMARK    5  A    between atoms: C_11  and  N_12
DOCKED: REMARK    6  A    between atoms: N_12  and  C_13
DOCKED: REMARK    7  A    between atoms: N_12  and  C_15
DOCKED: REMARK    8  A    between atoms: C_13  and  C_14
DOCKED: REMARK    9  A    between atoms: C_15  and  C_16
DOCKED: REMARK   10  A    between atoms: N_21  and  C_22
DOCKED: REMARK   11  A    between atoms: C_25  and  C_26
DOCKED: REMARK                            x       y       z     vdW  Elec       q    Type
DOCKED: REMARK                         _______ _______ _______ _____ _____    ______ ____
DOCKED: USER                              x       y       z     vdW  Elec       q    Type
DOCKED: USER                           _______ _______ _______ _____ _____    ______ ____
DOCKED: ROOT
DOCKED: ATOM      1  C   UNL     1      34.946  18.266 122.453 -0.30 -0.00    +0.000 C 
DOCKED: ENDROOT
DOCKED: BRANCH   1   2
DOCKED: ATOM      2  C   UNL     1      35.217  17.980 121.004 -0.25 -0.00    +0.000 A 
DOCKED: ATOM      3  C   UNL     1      34.946  18.945 120.023 -0.21 -0.00    +0.000 A 
DOCKED: ATOM      4  C   UNL     1      35.184  18.667 118.673 -0.14 -0.00    +0.000 A 
DOCKED: ATOM      5  C   UNL     1      35.683  17.415 118.286 -0.12 -0.00    +0.000 A 
DOCKED: ATOM      6  C   UNL     1      35.915  17.125 116.933 -0.08 -0.00    +0.000 A 
DOCKED: ATOM      7  C   UNL     1      36.382  15.858 116.547 -0.13 -0.00    +0.000 A 
DOCKED: ATOM      8  C   UNL     1      36.656  14.895 117.531 -0.24 -0.00    +0.000 A 
DOCKED: ATOM      9  C   UNL     1      36.435  15.178 118.883 -0.18 -0.00    +0.000 A 
DOCKED: ATOM     10  C   UNL     1      35.944  16.433 119.270 -0.10 -0.00    +0.000 A 
DOCKED: ATOM     11  C   UNL     1      35.711  16.722 120.623 -0.04 -0.00    +0.000 A 
DOCKED: ATOM     12  CM  UNL     1      35.448  17.694 119.646 +0.00 -0.00    +0.000 AC
DOCKED: ATOM     13  CM  UNL     1      36.169  16.150 117.908 +0.00 -0.00    +0.000 AC
DOCKED: BRANCH   7  12
DOCKED: ATOM     14  C   UNL     1      36.640  15.557 115.093 -0.15 -0.00    +0.000 C 
DOCKED: BRANCH  12  13
DOCKED: ATOM     15  N   UNL     1      37.993  14.989 114.901 -0.20 -0.00    +0.000 N 
DOCKED: ATOM     16  H   UNL     1      38.419  15.137 115.816 +0.00 -0.00    +0.000 HD
DOCKED: BRANCH  13  15
DOCKED: ATOM     17  C   UNL     1      38.016  13.523 114.713 -0.43 -0.00    +0.000 C 
DOCKED: ATOM     18  C   UNL     1      38.565  12.756 115.919 -0.52 -0.00    +0.000 C 
DOCKED: ENDBRANCH  13  15
DOCKED: BRANCH  13  17
DOCKED: ATOM     19  C   UNL     1      38.923  15.751 114.029 -0.20 -0.00    +0.000 C 
DOCKED: ATOM     20  C   UNL     1      40.384  15.765 114.500 -0.25 -0.00    +0.000 C 
DOCKED: ENDBRANCH  13  17
DOCKED: ENDBRANCH  12  13
DOCKED: ENDBRANCH   7  12
DOCKED: ENDBRANCH   1   2
DOCKED: BRANCH   1  19
DOCKED: ATOM     21  O   UNL     1      35.752  17.413 123.259 -0.28 -0.00    +0.000 OA
DOCKED: BRANCH  19  21
DOCKED: ATOM     22  O   UNL     1      34.541  15.461 123.480 -0.58 -0.00    +0.000 OA
DOCKED: ATOM     23  C   UNL     1      35.645  16.019 123.228 -0.41 -0.00    +0.000 C 
DOCKED: ATOM     24  N   UNL     1      36.815  15.237 122.953 -0.36 -0.00    +0.000 N 
DOCKED: ATOM     25  H   UNL     1      37.677  15.709 122.880 -0.01 -0.00    +0.000 HD
DOCKED: BRANCH  22  24
DOCKED: ATOM     26  C   UNL     1      36.814  13.811 122.775 -0.46 -0.00    +0.000 A 
DOCKED: ATOM     27  C   UNL     1      36.370  12.988 123.819 -0.54 -0.00    +0.000 A 
DOCKED: ATOM     28  C   UNL     1      36.383  11.597 123.683 -0.62 -0.00    +0.000 A 
DOCKED: ATOM     29  C   UNL     1      36.863  11.000 122.503 -0.55 -0.00    +0.000 A 
DOCKED: ATOM     30  C   UNL     1      37.314  11.827 121.459 -0.42 -0.00    +0.000 A 
DOCKED: ATOM     31  C   UNL     1      37.300  13.218 121.598 -0.42 -0.00    +0.000 A 
DOCKED: ATOM     32  CM  UNL     1      36.841  12.407 122.639 +0.00 -0.00    +0.000 AC
DOCKED: BRANCH  27  30
DOCKED: ATOM     33  C   UNL     1      36.887   9.524 122.340 -0.66 -0.00    +0.000 C 
DOCKED: ATOM     34  N   UNL     1      37.147   8.654 123.448 -0.63 -0.00    +0.000 N 
DOCKED: ATOM     35  O   UNL     1      37.062   7.313 123.294 -2.35 -0.00    +0.000 OA
DOCKED: ATOM     36  O   UNL     1      36.687   9.021 121.201 -2.62 -0.00    +0.000 OA
DOCKED: ATOM     37  H   UNL     1      37.390   9.034 124.323 -0.61 -0.00    +0.000 HD
DOCKED: ENDBRANCH  27  30
DOCKED: ENDBRANCH  22  24
DOCKED: ENDBRANCH  19  21
DOCKED: ENDBRANCH   1  19
DOCKED: TORSDOF 9DOCKED: TER
DOCKED: ENDMDL
________________________________________________________________________________


	BEGINNING GENETIC ALGORITHM DOCKING 97 of 100
Run: 97 Seed: 1603443931 1603506586 [ Run 97 of 100 GA/GALS ]
Beginning LAMARCKIAN GENETIC ALGORITHM (LGA), with a maximum of 2500000 energy evaluations.

Final-Value: -16.235


	FINAL GENETIC ALGORITHM DOCKED STATE
	_______________________________________________


Detailed state:  trans 36.732 16.904 124.293 quatxyzw -0.328069 -0.256509 0.900764 0.123277 center 1.619 0.086 0.013 ntor 9 -49.4254 -25.6392 156.6260 7.3848 -172.3249 11.0739 80.3740 125.6869 11.6006
State:	 36.732  16.904 124.293  -0.331 -0.258  0.908 165.837    -49.43  -25.64  156.63    7.38 -172.32   11.07   80.37  125.69   11.60

DOCKED: MODEL       97
DOCKED: USER    Run = 97
DOCKED: USER    DPF = ligand_dock.biased.dpf
DOCKED: USER  
DOCKED: USER    Estimated Free Energy of Binding    =  -11.82 kcal/mol  [=(1)+(2)+(3)-(4)]
DOCKED: USER    Estimated Inhibition Constant, Ki   =    2.15 nM (nanomolar)  [Temperature = 298.15 K]
DOCKED: USER    
DOCKED: USER    (1) Final Intermolecular Energy     =  -14.51 kcal/mol
DOCKED: USER        vdW + Hbond + desolv Energy     =  -14.51 kcal/mol
DOCKED: USER        Electrostatic Energy            =   +0.00 kcal/mol
DOCKED: USER    (2) Final Total Internal Energy     =   -1.73 kcal/mol
DOCKED: USER    (3) Torsional Free Energy           =   +2.68 kcal/mol
DOCKED: USER    (4) Unbound System's Energy  [=(2)] =   -1.73 kcal/mol
DOCKED: USER    
DOCKED: USER    
DOCKED: USER    NEWDPF move ligand.dum.pdbqt
DOCKED: USER    NEWDPF about 1.619000 0.086000 0.013000
DOCKED: USER    NEWDPF tran0 36.731958 16.903906 124.292822
DOCKED: USER    NEWDPF quaternion0 -0.328069 -0.256509 0.900764 0.123277
DOCKED: USER    NEWDPF axisangle0 -0.330591 -0.258481 0.907688 165.837471
DOCKED: USER    NEWDPF quat0 -0.330591 -0.258481 0.907688 165.837471
DOCKED: USER    NEWDPF dihe0 -49.43 -25.64 156.63 7.38 -172.32 11.07 80.37 125.69 11.60 
DOCKED: USER  keepresnum = 1 
DOCKED: USER  
DOCKED: REMARK  Name = 
DOCKED: REMARK  11 active torsions:
DOCKED: REMARK  status: ('A' for Active; 'I' for Inactive)
DOCKED: REMARK    1  A    between atoms: C_2  and  O_3
DOCKED: REMARK    2  A    between atoms: O_3  and  C_4
DOCKED: REMARK    3  A    between atoms: C_4  and  C_5
DOCKED: REMARK    4  A    between atoms: C_10  and  C_11
DOCKED: REMARK    5  A    between atoms: C_11  and  N_12
DOCKED: REMARK    6  A    between atoms: N_12  and  C_13
DOCKED: REMARK    7  A    between atoms: N_12  and  C_15
DOCKED: REMARK    8  A    between atoms: C_13  and  C_14
DOCKED: REMARK    9  A    between atoms: C_15  and  C_16
DOCKED: REMARK   10  A    between atoms: N_21  and  C_22
DOCKED: REMARK   11  A    between atoms: C_25  and  C_26
DOCKED: REMARK                            x       y       z     vdW  Elec       q    Type
DOCKED: REMARK                         _______ _______ _______ _____ _____    ______ ____
DOCKED: USER                              x       y       z     vdW  Elec       q    Type
DOCKED: USER                           _______ _______ _______ _____ _____    ______ ____
DOCKED: ROOT
DOCKED: ATOM      1  C   UNL     1      37.573  18.432 122.651 -0.13 -0.00    +0.000 C 
DOCKED: ENDROOT
DOCKED: BRANCH   1   2
DOCKED: ATOM      2  C   UNL     1      38.631  18.340 123.713 -0.15 -0.00    +0.000 A 
DOCKED: ATOM      3  C   UNL     1      39.946  17.983 123.381 -0.18 -0.00    +0.000 A 
DOCKED: ATOM      4  C   UNL     1      40.924  17.882 124.376 -0.30 -0.00    +0.000 A 
DOCKED: ATOM      5  C   UNL     1      40.594  18.122 125.718 -0.30 -0.00    +0.000 A 
DOCKED: ATOM      6  C   UNL     1      41.566  18.013 126.724 -0.22 -0.00    +0.000 A 
DOCKED: ATOM      7  C   UNL     1      41.224  18.221 128.070 -0.40 -0.00    +0.000 A 
DOCKED: ATOM      8  C   UNL     1      39.907  18.581 128.399 -0.25 -0.00    +0.000 A 
DOCKED: ATOM      9  C   UNL     1      38.934  18.699 127.402 -0.16 -0.00    +0.000 A 
DOCKED: ATOM     10  C   UNL     1      39.265  18.468 126.060 -0.16 -0.00    +0.000 A 
DOCKED: ATOM     11  C   UNL     1      38.293  18.576 125.054 -0.16 -0.00    +0.000 A 
DOCKED: ATOM     12  CM  UNL     1      39.609  18.229 124.717 +0.00 -0.00    +0.000 AC
DOCKED: ATOM     13  CM  UNL     1      40.248  18.350 127.062 +0.00 -0.00    +0.000 AC
DOCKED: BRANCH   7  12
DOCKED: ATOM     14  C   UNL     1      42.277  18.113 129.143 -0.46 -0.00    +0.000 C 
DOCKED: BRANCH  12  13
DOCKED: ATOM     15  N   UNL     1      42.147  19.212 130.125 -0.17 -0.00    +0.000 N 
DOCKED: ATOM     16  H   UNL     1      41.164  19.144 130.394 +0.00 -0.00    +0.000 HD
DOCKED: BRANCH  13  15
DOCKED: ATOM     17  C   UNL     1      42.891  18.995 131.384 -0.17 -0.00    +0.000 C 
DOCKED: ATOM     18  C   UNL     1      44.054  18.009 131.250 -0.30 -0.00    +0.000 C 
DOCKED: ENDBRANCH  13  15
DOCKED: BRANCH  13  17
DOCKED: ATOM     19  C   UNL     1      42.200  20.597 129.592 -0.11 -0.00    +0.000 C 
DOCKED: ATOM     20  C   UNL     1      43.560  21.016 129.016 -0.12 -0.00    +0.000 C 
DOCKED: ENDBRANCH  13  17
DOCKED: ENDBRANCH  12  13
DOCKED: ENDBRANCH   7  12
DOCKED: ENDBRANCH   1   2
DOCKED: BRANCH   1  19
DOCKED: ATOM     21  O   UNL     1      36.533  17.504 122.943 -0.22 -0.00    +0.000 OA
DOCKED: BRANCH  19  21
DOCKED: ATOM     22  O   UNL     1      37.187  15.694 124.214 -0.24 -0.00    +0.000 OA
DOCKED: ATOM     23  C   UNL     1      36.764  16.136 123.110 -0.34 -0.00    +0.000 C 
DOCKED: ATOM     24  N   UNL     1      36.560  15.254 121.998 -0.26 -0.00    +0.000 N 
DOCKED: ATOM     25  H   UNL     1      36.345  15.656 121.125 -0.01 -0.00    +0.000 HD
DOCKED: BRANCH  22  24
DOCKED: ATOM     26  C   UNL     1      36.646  13.821 122.073 -0.26 -0.00    +0.000 A 
DOCKED: ATOM     27  C   UNL     1      37.363  13.122 121.091 -0.42 -0.00    +0.000 A 
DOCKED: ATOM     28  C   UNL     1      37.441  11.728 121.125 -0.40 -0.00    +0.000 A 
DOCKED: ATOM     29  C   UNL     1      36.782  11.000 122.133 -0.54 -0.00    +0.000 A 
DOCKED: ATOM     30  C   UNL     1      36.058  11.702 123.113 -0.61 -0.00    +0.000 A 
DOCKED: ATOM     31  C   UNL     1      35.982  13.098 123.077 -0.45 -0.00    +0.000 A 
DOCKED: ATOM     32  CM  UNL     1      36.711  12.412 122.102 +0.00 -0.00    +0.000 AC
DOCKED: BRANCH  27  30
DOCKED: ATOM     33  C   UNL     1      36.851   9.518 122.184 -0.66 -0.00    +0.000 C 
DOCKED: ATOM     34  N   UNL     1      37.107   8.824 123.410 -0.61 -0.00    +0.000 N 
DOCKED: ATOM     35  O   UNL     1      37.062   7.472 123.448 -2.52 -0.00    +0.000 OA
DOCKED: ATOM     36  O   UNL     1      36.694   8.851 121.124 -2.61 -0.00    +0.000 OA
DOCKED: ATOM     37  H   UNL     1      37.317   9.332 124.226 -0.62 -0.00    +0.000 HD
DOCKED: ENDBRANCH  27  30
DOCKED: ENDBRANCH  22  24
DOCKED: ENDBRANCH  19  21
DOCKED: ENDBRANCH   1  19
DOCKED: TORSDOF 9DOCKED: TER
DOCKED: ENDMDL
________________________________________________________________________________


	BEGINNING GENETIC ALGORITHM DOCKING 98 of 100
Run: 98 Seed: 222502703 1524715758 [ Run 98 of 100 GA/GALS ]
Beginning LAMARCKIAN GENETIC ALGORITHM (LGA), with a maximum of 2500000 energy evaluations.

Final-Value: -17.292


	FINAL GENETIC ALGORITHM DOCKED STATE
	_______________________________________________


Detailed state:  trans 37.286 16.731 123.894 quatxyzw 0.338162 0.448385 -0.107931 -0.820334 center 1.619 0.086 0.013 ntor 9 -136.3073 -74.2856 170.1793 -23.1463 137.5901 26.5239 -132.3706 -112.4367 -177.3524
State:	 37.286  16.731 123.894   0.591  0.784 -0.189 -69.763   -136.31  -74.29  170.18  -23.15  137.59   26.52 -132.37 -112.44 -177.35

DOCKED: MODEL       98
DOCKED: USER    Run = 98
DOCKED: USER    DPF = ligand_dock.biased.dpf
DOCKED: USER  
DOCKED: USER    Estimated Free Energy of Binding    =  -12.91 kcal/mol  [=(1)+(2)+(3)-(4)]
DOCKED: USER    Estimated Inhibition Constant, Ki   =  345.91 pM (picomolar)  [Temperature = 298.15 K]
DOCKED: USER    
DOCKED: USER    (1) Final Intermolecular Energy     =  -15.59 kcal/mol
DOCKED: USER        vdW + Hbond + desolv Energy     =  -15.59 kcal/mol
DOCKED: USER        Electrostatic Energy            =   +0.00 kcal/mol
DOCKED: USER    (2) Final Total Internal Energy     =   -1.70 kcal/mol
DOCKED: USER    (3) Torsional Free Energy           =   +2.68 kcal/mol
DOCKED: USER    (4) Unbound System's Energy  [=(2)] =   -1.70 kcal/mol
DOCKED: USER    
DOCKED: USER    
DOCKED: USER    NEWDPF move ligand.dum.pdbqt
DOCKED: USER    NEWDPF about 1.619000 0.086000 0.013000
DOCKED: USER    NEWDPF tran0 37.286246 16.730725 123.893656
DOCKED: USER    NEWDPF quaternion0 0.338162 0.448385 -0.107931 -0.820334
DOCKED: USER    NEWDPF axisangle0 0.591311 0.784049 -0.188730 -69.763444
DOCKED: USER    NEWDPF quat0 0.591311 0.784049 -0.188730 -69.763444
DOCKED: USER    NEWDPF dihe0 -136.31 -74.29 170.18 -23.15 137.59 26.52 -132.37 -112.44 -177.35 
DOCKED: USER  keepresnum = 1 
DOCKED: USER  
DOCKED: REMARK  Name = 
DOCKED: REMARK  11 active torsions:
DOCKED: REMARK  status: ('A' for Active; 'I' for Inactive)
DOCKED: REMARK    1  A    between atoms: C_2  and  O_3
DOCKED: REMARK    2  A    between atoms: O_3  and  C_4
DOCKED: REMARK    3  A    between atoms: C_4  and  C_5
DOCKED: REMARK    4  A    between atoms: C_10  and  C_11
DOCKED: REMARK    5  A    between atoms: C_11  and  N_12
DOCKED: REMARK    6  A    between atoms: N_12  and  C_13
DOCKED: REMARK    7  A    between atoms: N_12  and  C_15
DOCKED: REMARK    8  A    between atoms: C_13  and  C_14
DOCKED: REMARK    9  A    between atoms: C_15  and  C_16
DOCKED: REMARK   10  A    between atoms: N_21  and  C_22
DOCKED: REMARK   11  A    between atoms: C_25  and  C_26
DOCKED: REMARK                            x       y       z     vdW  Elec       q    Type
DOCKED: REMARK                         _______ _______ _______ _____ _____    ______ ____
DOCKED: USER                              x       y       z     vdW  Elec       q    Type
DOCKED: USER                           _______ _______ _______ _____ _____    ______ ____
DOCKED: ROOT
DOCKED: ATOM      1  C   UNL     1      35.781  18.061 122.589 -0.26 -0.00    +0.000 C 
DOCKED: ENDROOT
DOCKED: BRANCH   1   2
DOCKED: ATOM      2  C   UNL     1      35.089  17.816 123.899 -0.31 -0.00    +0.000 A 
DOCKED: ATOM      3  C   UNL     1      34.723  16.517 124.282 -0.44 -0.00    +0.000 A 
DOCKED: ATOM      4  C   UNL     1      34.063  16.296 125.495 -0.42 -0.00    +0.000 A 
DOCKED: ATOM      5  C   UNL     1      33.748  17.375 126.334 -0.36 -0.00    +0.000 A 
DOCKED: ATOM      6  C   UNL     1      33.078  17.164 127.549 -0.36 -0.00    +0.000 A 
DOCKED: ATOM      7  C   UNL     1      32.734  18.250 128.370 -0.20 -0.00    +0.000 A 
DOCKED: ATOM      8  C   UNL     1      33.104  19.549 127.986 -0.12 -0.00    +0.000 A 
DOCKED: ATOM      9  C   UNL     1      33.779  19.768 126.782 -0.17 -0.00    +0.000 A 
DOCKED: ATOM     10  C   UNL     1      34.102  18.689 125.947 -0.27 -0.00    +0.000 A 
DOCKED: ATOM     11  C   UNL     1      34.771  18.901 124.732 -0.23 -0.00    +0.000 A 
DOCKED: ATOM     12  CM  UNL     1      34.416  17.598 125.115 -0.40 -0.00    +0.000 AC
DOCKED: ATOM     13  CM  UNL     1      33.424  18.466 127.161 -0.00 -0.00    +0.000 AC
DOCKED: BRANCH   7  12
DOCKED: ATOM     14  C   UNL     1      32.024  18.013 129.679 -0.25 -0.00    +0.000 C 
DOCKED: BRANCH  12  13
DOCKED: ATOM     15  N   UNL     1      32.991  17.750 130.766 -0.17 -0.00    +0.000 N 
DOCKED: ATOM     16  H   UNL     1      33.846  18.170 130.399 +0.00 -0.00    +0.000 HD
DOCKED: BRANCH  13  15
DOCKED: ATOM     17  C   UNL     1      32.720  18.493 132.015 -0.11 -0.00    +0.000 C 
DOCKED: ATOM     18  C   UNL     1      32.837  20.011 131.867 -0.06 -0.00    +0.000 C 
DOCKED: ENDBRANCH  13  15
DOCKED: BRANCH  13  17
DOCKED: ATOM     19  C   UNL     1      33.424  16.341 130.952 -0.25 -0.00    +0.000 C 
DOCKED: ATOM     20  C   UNL     1      33.019  15.712 132.292 -0.33 -0.00    +0.000 C 
DOCKED: ENDBRANCH  13  17
DOCKED: ENDBRANCH  12  13
DOCKED: ENDBRANCH   7  12
DOCKED: ENDBRANCH   1   2
DOCKED: BRANCH   1  19
DOCKED: ATOM     21  O   UNL     1      37.099  17.526 122.647 -0.18 -0.00    +0.000 OA
DOCKED: BRANCH  19  21
DOCKED: ATOM     22  O   UNL     1      38.175  15.740 123.633 -0.33 -0.00    +0.000 OA
DOCKED: ATOM     23  C   UNL     1      37.356  16.158 122.768 -0.30 -0.00    +0.000 C 
DOCKED: ATOM     24  N   UNL     1      36.714  15.246 121.867 -0.27 -0.00    +0.000 N 
DOCKED: ATOM     25  H   UNL     1      36.177  15.626 121.133 -0.01 -0.00    +0.000 HD
DOCKED: BRANCH  22  24
DOCKED: ATOM     26  C   UNL     1      36.800  13.814 121.963 -0.31 -0.00    +0.000 A 
DOCKED: ATOM     27  C   UNL     1      37.370  13.087 120.908 -0.43 -0.00    +0.000 A 
DOCKED: ATOM     28  C   UNL     1      37.443  11.693 120.964 -0.41 -0.00    +0.000 A 
DOCKED: ATOM     29  C   UNL     1      36.925  10.994 122.070 -0.50 -0.00    +0.000 A 
DOCKED: ATOM     30  C   UNL     1      36.348  11.726 123.124 -0.62 -0.00    +0.000 A 
DOCKED: ATOM     31  C   UNL     1      36.276  13.121 123.066 -0.51 -0.00    +0.000 A 
DOCKED: ATOM     32  CM  UNL     1      36.860  12.405 122.016 +0.00 -0.00    +0.000 AC
DOCKED: BRANCH  27  30
DOCKED: ATOM     33  C   UNL     1      36.990   9.513 122.147 -0.63 -0.00    +0.000 C 
DOCKED: ATOM     34  N   UNL     1      37.127   8.835 123.400 -0.61 -0.00    +0.000 N 
DOCKED: ATOM     35  O   UNL     1      37.081   7.484 123.452 -2.52 -0.00    +0.000 OA
DOCKED: ATOM     36  O   UNL     1      36.938   8.833 121.085 -2.66 -0.00    +0.000 OA
DOCKED: ATOM     37  H   UNL     1      37.257   9.354 124.226 -0.61 -0.00    +0.000 HD
DOCKED: ENDBRANCH  27  30
DOCKED: ENDBRANCH  22  24
DOCKED: ENDBRANCH  19  21
DOCKED: ENDBRANCH   1  19
DOCKED: TORSDOF 9DOCKED: TER
DOCKED: ENDMDL
________________________________________________________________________________


	BEGINNING GENETIC ALGORITHM DOCKING 99 of 100
Run: 99 Seed: 2009065642 1099153641 [ Run 99 of 100 GA/GALS ]
Beginning LAMARCKIAN GENETIC ALGORITHM (LGA), with a maximum of 2500000 energy evaluations.

Final-Value: -18.247


	FINAL GENETIC ALGORITHM DOCKED STATE
	_______________________________________________


Detailed state:  trans 38.263 16.459 122.598 quatxyzw -0.447993 -0.386073 0.086043 0.801777 center 1.619 0.086 0.013 ntor 9 -36.5812 149.0147 5.1028 9.7835 -40.3618 -130.9467 -166.9042 -123.3821 154.6544
State:	 38.263  16.459 122.598  -0.750 -0.646  0.144 73.400    -36.58  149.01    5.10    9.78  -40.36 -130.95 -166.90 -123.38  154.65

DOCKED: MODEL       99
DOCKED: USER    Run = 99
DOCKED: USER    DPF = ligand_dock.biased.dpf
DOCKED: USER  
DOCKED: USER    Estimated Free Energy of Binding    =  -13.75 kcal/mol  [=(1)+(2)+(3)-(4)]
DOCKED: USER    Estimated Inhibition Constant, Ki   =   83.19 pM (picomolar)  [Temperature = 298.15 K]
DOCKED: USER    
DOCKED: USER    (1) Final Intermolecular Energy     =  -16.44 kcal/mol
DOCKED: USER        vdW + Hbond + desolv Energy     =  -16.44 kcal/mol
DOCKED: USER        Electrostatic Energy            =   +0.00 kcal/mol
DOCKED: USER    (2) Final Total Internal Energy     =   -1.81 kcal/mol
DOCKED: USER    (3) Torsional Free Energy           =   +2.68 kcal/mol
DOCKED: USER    (4) Unbound System's Energy  [=(2)] =   -1.81 kcal/mol
DOCKED: USER    
DOCKED: USER    
DOCKED: USER    NEWDPF move ligand.dum.pdbqt
DOCKED: USER    NEWDPF about 1.619000 0.086000 0.013000
DOCKED: USER    NEWDPF tran0 38.263137 16.458983 122.597710
DOCKED: USER    NEWDPF quaternion0 -0.447993 -0.386073 0.086043 0.801777
DOCKED: USER    NEWDPF axisangle0 -0.749625 -0.646014 0.143976 73.399755
DOCKED: USER    NEWDPF quat0 -0.749625 -0.646014 0.143976 73.399755
DOCKED: USER    NEWDPF dihe0 -36.58 149.01 5.10 9.78 -40.36 -130.95 -166.90 -123.38 154.65 
DOCKED: USER  keepresnum = 1 
DOCKED: USER  
DOCKED: REMARK  Name = 
DOCKED: REMARK  11 active torsions:
DOCKED: REMARK  status: ('A' for Active; 'I' for Inactive)
DOCKED: REMARK    1  A    between atoms: C_2  and  O_3
DOCKED: REMARK    2  A    between atoms: O_3  and  C_4
DOCKED: REMARK    3  A    between atoms: C_4  and  C_5
DOCKED: REMARK    4  A    between atoms: C_10  and  C_11
DOCKED: REMARK    5  A    between atoms: C_11  and  N_12
DOCKED: REMARK    6  A    between atoms: N_12  and  C_13
DOCKED: REMARK    7  A    between atoms: N_12  and  C_15
DOCKED: REMARK    8  A    between atoms: C_13  and  C_14
DOCKED: REMARK    9  A    between atoms: C_15  and  C_16
DOCKED: REMARK   10  A    between atoms: N_21  and  C_22
DOCKED: REMARK   11  A    between atoms: C_25  and  C_26
DOCKED: REMARK                            x       y       z     vdW  Elec       q    Type
DOCKED: REMARK                         _______ _______ _______ _____ _____    ______ ____
DOCKED: USER                              x       y       z     vdW  Elec       q    Type
DOCKED: USER                           _______ _______ _______ _____ _____    ______ ____
DOCKED: ROOT
DOCKED: ATOM      1  C   UNL     1      37.080  18.184 121.431 -0.13 -0.00    +0.000 C 
DOCKED: ENDROOT
DOCKED: BRANCH   1   2
DOCKED: ATOM      2  C   UNL     1      36.199  17.779 122.578 -0.20 -0.00    +0.000 A 
DOCKED: ATOM      3  C   UNL     1      35.221  16.788 122.412 -0.29 -0.00    +0.000 A 
DOCKED: ATOM      4  C   UNL     1      34.391  16.427 123.478 -0.43 -0.00    +0.000 A 
DOCKED: ATOM      5  C   UNL     1      34.520  17.064 124.720 -0.41 -0.00    +0.000 A 
DOCKED: ATOM      6  C   UNL     1      33.685  16.715 125.793 -0.32 -0.00    +0.000 A 
DOCKED: ATOM      7  C   UNL     1      33.794  17.379 127.025 -0.32 -0.00    +0.000 A 
DOCKED: ATOM      8  C   UNL     1      34.776  18.369 127.190 -0.17 -0.00    +0.000 A 
DOCKED: ATOM      9  C   UNL     1      35.617  18.718 126.130 -0.18 -0.00    +0.000 A 
DOCKED: ATOM     10  C   UNL     1      35.494  18.075 124.890 -0.26 -0.00    +0.000 A 
DOCKED: ATOM     11  C   UNL     1      36.329  18.425 123.817 -0.19 -0.00    +0.000 A 
DOCKED: ATOM     12  CM  UNL     1      35.359  17.426 123.649 -0.10 -0.00    +0.000 AC
DOCKED: ATOM     13  CM  UNL     1      34.647  17.720 125.958 -0.26 -0.00    +0.000 AC
DOCKED: BRANCH   7  12
DOCKED: ATOM     14  C   UNL     1      32.901  16.990 128.176 -0.41 -0.00    +0.000 C 
DOCKED: BRANCH  12  13
DOCKED: ATOM     15  N   UNL     1      31.663  17.801 128.184 -0.31 -0.00    +0.000 N 
DOCKED: ATOM     16  H   UNL     1      31.297  17.641 127.245 -0.50 -0.00    +0.000 HD
DOCKED: BRANCH  13  15
DOCKED: ATOM     17  C   UNL     1      30.608  17.292 129.086 -0.47 -0.00    +0.000 C 
DOCKED: ATOM     18  C   UNL     1      31.147  16.671 130.376 -0.39 -0.00    +0.000 C 
DOCKED: ENDBRANCH  13  15
DOCKED: BRANCH  13  17
DOCKED: ATOM     19  C   UNL     1      31.828  19.277 128.176 -0.21 -0.00    +0.000 C 
DOCKED: ATOM     20  C   UNL     1      31.472  19.959 126.848 -0.30 -0.00    +0.000 C 
DOCKED: ENDBRANCH  13  17
DOCKED: ENDBRANCH  12  13
DOCKED: ENDBRANCH   7  12
DOCKED: ENDBRANCH   1   2
DOCKED: BRANCH   1  19
DOCKED: ATOM     21  O   UNL     1      38.321  17.494 121.526 -0.11 -0.00    +0.000 OA
DOCKED: BRANCH  19  21
DOCKED: ATOM     22  O   UNL     1      39.492  15.555 121.963 -0.32 -0.00    +0.000 OA
DOCKED: ATOM     23  C   UNL     1      38.408  16.102 121.617 -0.22 -0.00    +0.000 C 
DOCKED: ATOM     24  N   UNL     1      37.266  15.309 121.267 -0.24 -0.00    +0.000 N 
DOCKED: ATOM     25  H   UNL     1      36.483  15.771 120.890 -0.01 -0.00    +0.000 HD
DOCKED: BRANCH  22  24
DOCKED: ATOM     26  C   UNL     1      37.188  13.883 121.431 -0.34 -0.00    +0.000 A 
DOCKED: ATOM     27  C   UNL     1      36.820  13.353 122.676 -0.48 -0.00    +0.000 A 
DOCKED: ATOM     28  C   UNL     1      36.762  11.971 122.872 -0.58 -0.00    +0.000 A 
DOCKED: ATOM     29  C   UNL     1      37.093  11.087 121.828 -0.43 -0.00    +0.000 A 
DOCKED: ATOM     30  C   UNL     1      37.469  11.621 120.582 -0.40 -0.00    +0.000 A 
DOCKED: ATOM     31  C   UNL     1      37.526  13.005 120.389 -0.43 -0.00    +0.000 A 
DOCKED: ATOM     32  CM  UNL     1      37.143  12.486 121.629 +0.00 -0.00    +0.000 AC
DOCKED: BRANCH  27  30
DOCKED: ATOM     33  C   UNL     1      37.040   9.616 122.016 -0.61 -0.00    +0.000 C 
DOCKED: ATOM     34  N   UNL     1      37.011   9.030 123.322 -0.61 -0.00    +0.000 N 
DOCKED: ATOM     35  O   UNL     1      36.859   7.694 123.466 -2.56 -0.00    +0.000 OA
DOCKED: ATOM     36  O   UNL     1      37.034   8.860 121.006 -2.70 -0.00    +0.000 OA
DOCKED: ATOM     37  H   UNL     1      37.103   9.602 124.118 -0.56 -0.00    +0.000 HD
DOCKED: ENDBRANCH  27  30
DOCKED: ENDBRANCH  22  24
DOCKED: ENDBRANCH  19  21
DOCKED: ENDBRANCH   1  19
DOCKED: TORSDOF 9DOCKED: TER
DOCKED: ENDMDL
________________________________________________________________________________


	BEGINNING GENETIC ALGORITHM DOCKING 100 of 100
Run: 100 Seed: 1652954960 2061145472 [ Run 100 of 100 GA/GALS ]
Beginning LAMARCKIAN GENETIC ALGORITHM (LGA), with a maximum of 2500000 energy evaluations.

Final-Value: -16.522


	FINAL GENETIC ALGORITHM DOCKED STATE
	_______________________________________________


Detailed state:  trans 37.406 16.321 122.193 quatxyzw 0.116427 0.703140 -0.672960 0.197897 center 1.619 0.086 0.013 ntor 9 -108.2742 -174.9162 167.4043 82.3703 -31.7589 130.7646 -60.0649 -173.6014 167.4222
State:	 37.406  16.321 122.193   0.119  0.717 -0.687 157.172   -108.27 -174.92  167.40   82.37  -31.76  130.76  -60.06 -173.60  167.42

DOCKED: MODEL      100
DOCKED: USER    Run = 100
DOCKED: USER    DPF = ligand_dock.biased.dpf
DOCKED: USER  
DOCKED: USER    Estimated Free Energy of Binding    =  -12.26 kcal/mol  [=(1)+(2)+(3)-(4)]
DOCKED: USER    Estimated Inhibition Constant, Ki   =    1.04 nM (nanomolar)  [Temperature = 298.15 K]
DOCKED: USER    
DOCKED: USER    (1) Final Intermolecular Energy     =  -14.94 kcal/mol
DOCKED: USER        vdW + Hbond + desolv Energy     =  -14.94 kcal/mol
DOCKED: USER        Electrostatic Energy            =   +0.00 kcal/mol
DOCKED: USER    (2) Final Total Internal Energy     =   -1.58 kcal/mol
DOCKED: USER    (3) Torsional Free Energy           =   +2.68 kcal/mol
DOCKED: USER    (4) Unbound System's Energy  [=(2)] =   -1.58 kcal/mol
DOCKED: USER    
DOCKED: USER    
DOCKED: USER    NEWDPF move ligand.dum.pdbqt
DOCKED: USER    NEWDPF about 1.619000 0.086000 0.013000
DOCKED: USER    NEWDPF tran0 37.406217 16.321448 122.192770
DOCKED: USER    NEWDPF quaternion0 0.116427 0.703140 -0.672960 0.197897
DOCKED: USER    NEWDPF axisangle0 0.118776 0.717327 -0.686538 157.171966
DOCKED: USER    NEWDPF quat0 0.118776 0.717327 -0.686538 157.171966
DOCKED: USER    NEWDPF dihe0 -108.27 -174.92 167.40 82.37 -31.76 130.76 -60.06 -173.60 167.42 
DOCKED: USER  keepresnum = 1 
DOCKED: USER  
DOCKED: REMARK  Name = 
DOCKED: REMARK  11 active torsions:
DOCKED: REMARK  status: ('A' for Active; 'I' for Inactive)
DOCKED: REMARK    1  A    between atoms: C_2  and  O_3
DOCKED: REMARK    2  A    between atoms: O_3  and  C_4
DOCKED: REMARK    3  A    between atoms: C_4  and  C_5
DOCKED: REMARK    4  A    between atoms: C_10  and  C_11
DOCKED: REMARK    5  A    between atoms: C_11  and  N_12
DOCKED: REMARK    6  A    between atoms: N_12  and  C_13
DOCKED: REMARK    7  A    between atoms: N_12  and  C_15
DOCKED: REMARK    8  A    between atoms: C_13  and  C_14
DOCKED: REMARK    9  A    between atoms: C_15  and  C_16
DOCKED: REMARK   10  A    between atoms: N_21  and  C_22
DOCKED: REMARK   11  A    between atoms: C_25  and  C_26
DOCKED: REMARK                            x       y       z     vdW  Elec       q    Type
DOCKED: REMARK                         _______ _______ _______ _____ _____    ______ ____
DOCKED: USER                              x       y       z     vdW  Elec       q    Type
DOCKED: USER                           _______ _______ _______ _____ _____    ______ ____
DOCKED: ROOT
DOCKED: ATOM      1  C   UNL     1      38.140  18.566 122.597 -0.11 -0.00    +0.000 C 
DOCKED: ENDROOT
DOCKED: BRANCH   1   2
DOCKED: ATOM      2  C   UNL     1      39.382  17.765 122.329 -0.12 -0.00    +0.000 A 
DOCKED: ATOM      3  C   UNL     1      39.946  16.965 123.333 -0.22 -0.00    +0.000 A 
DOCKED: ATOM      4  C   UNL     1      41.113  16.234 123.084 -0.35 -0.00    +0.000 A 
DOCKED: ATOM      5  C   UNL     1      41.738  16.308 121.831 -0.29 -0.00    +0.000 A 
DOCKED: ATOM      6  C   UNL     1      42.914  15.586 121.575 -0.27 -0.00    +0.000 A 
DOCKED: ATOM      7  C   UNL     1      43.556  15.689 120.330 -0.23 -0.00    +0.000 A 
DOCKED: ATOM      8  C   UNL     1      42.987  16.488 119.325 -0.16 -0.00    +0.000 A 
DOCKED: ATOM      9  C   UNL     1      41.811  17.204 119.569 -0.09 -0.00    +0.000 A 
DOCKED: ATOM     10  C   UNL     1      41.181  17.125 120.819 -0.12 -0.00    +0.000 A 
DOCKED: ATOM     11  C   UNL     1      40.006  17.847 121.074 -0.06 -0.00    +0.000 A 
DOCKED: ATOM     12  CM  UNL     1      40.561  17.040 122.079 +0.00 -0.00    +0.000 AC
DOCKED: ATOM     13  CM  UNL     1      42.365  16.400 120.575 +0.00 -0.00    +0.000 AC
DOCKED: BRANCH   7  12
DOCKED: ATOM     14  C   UNL     1      44.813  14.902 120.059 -0.32 +0.00    +0.000 C 
DOCKED: BRANCH  12  13
DOCKED: ATOM     15  N   UNL     1      46.001  15.599 120.599 -0.31 +0.00    +0.000 N 
DOCKED: ATOM     16  H   UNL     1      46.438  14.869 121.164 -0.04 +0.00    +0.000 HD
DOCKED: BRANCH  13  15
DOCKED: ATOM     17  C   UNL     1      47.019  15.942 119.583 -0.24 +0.00    +0.000 C 
DOCKED: ATOM     18  C   UNL     1      47.166  14.892 118.480 -0.39 +0.00    +0.000 C 
DOCKED: ENDBRANCH  13  15
DOCKED: BRANCH  13  17
DOCKED: ATOM     19  C   UNL     1      45.757  16.644 121.626 -0.29 +0.00    +0.000 C 
DOCKED: ATOM     20  C   UNL     1      46.816  16.719 122.735 -0.40 +0.00    +0.000 C 
DOCKED: ENDBRANCH  13  17
DOCKED: ENDBRANCH  12  13
DOCKED: ENDBRANCH   7  12
DOCKED: ENDBRANCH   1   2
DOCKED: BRANCH   1  19
DOCKED: ATOM     21  O   UNL     1      36.997  17.741 122.398 -0.16 -0.00    +0.000 OA
DOCKED: BRANCH  19  21
DOCKED: ATOM     22  O   UNL     1      37.705  15.996 121.064 -0.20 -0.00    +0.000 OA
DOCKED: ATOM     23  C   UNL     1      37.090  16.378 122.098 -0.24 -0.00    +0.000 C 
DOCKED: ATOM     24  N   UNL     1      36.438  15.431 122.955 -0.36 -0.00    +0.000 N 
DOCKED: ATOM     25  H   UNL     1      35.872  15.781 123.681 -0.02 -0.00    +0.000 HD
DOCKED: BRANCH  22  24
DOCKED: ATOM     26  C   UNL     1      36.557  14.004 122.825 -0.42 -0.00    +0.000 A 
DOCKED: ATOM     27  C   UNL     1      37.095  13.463 121.649 -0.39 -0.00    +0.000 A 
DOCKED: ATOM     28  C   UNL     1      37.198  12.079 121.486 -0.47 -0.00    +0.000 A 
DOCKED: ATOM     29  C   UNL     1      36.743  11.206 122.491 -0.57 -0.00    +0.000 A 
DOCKED: ATOM     30  C   UNL     1      36.198  11.751 123.667 -0.62 -0.00    +0.000 A 
DOCKED: ATOM     31  C   UNL     1      36.096  13.136 123.828 -0.53 -0.00    +0.000 A 
DOCKED: ATOM     32  CM  UNL     1      36.648  12.606 122.658 +0.00 -0.00    +0.000 AC
DOCKED: BRANCH  27  30
DOCKED: ATOM     33  C   UNL     1      36.842   9.732 122.335 -0.66 -0.00    +0.000 C 
DOCKED: ATOM     34  N   UNL     1      37.105   8.879 123.454 -0.60 -0.00    +0.000 N 
DOCKED: ATOM     35  O   UNL     1      37.088   7.535 123.304 -2.50 -0.00    +0.000 OA
DOCKED: ATOM     36  O   UNL     1      36.705   9.218 121.192 -2.63 -0.00    +0.000 OA
DOCKED: ATOM     37  H   UNL     1      37.300   9.272 124.335 -0.59 -0.00    +0.000 HD
DOCKED: ENDBRANCH  27  30
DOCKED: ENDBRANCH  22  24
DOCKED: ENDBRANCH  19  21
DOCKED: ENDBRANCH   1  19
DOCKED: TORSDOF 9DOCKED: TER
DOCKED: ENDMDL
________________________________________________________________________________

DPF> analysis                             # perform a ranked cluster analysis


		CLUSTER ANALYSIS OF CONFORMATIONS
		_________________________________

Number of conformations = 100

RMSD cluster analysis will be performed using the ligand atoms only (37 / 37 total atoms).

Outputting structurally similar clusters, ranked in order of increasing energy.


________________________________________________________________________________

Number of distinct conformational clusters found = 10,  out of 100 runs,
Using an rmsd-tolerance of 2.0 A


	CLUSTERING HISTOGRAM
	____________________

________________________________________________________________________________
     |           |     |           |     |                                    
Clus | Lowest    | Run | Mean      | Num | Histogram                          
-ter | Binding   |     | Binding   | in  |                                    
Rank | Energy    |     | Energy    | Clus|    5    10   15   20   25   30   35
_____|___________|_____|___________|_____|____:____|____:____|____:____|____:___
   1 |    -14.30 |  89 |    -13.36 |  35 |###################################
   2 |    -13.36 |  66 |    -12.60 |  15 |###############
   3 |    -13.12 |  53 |    -13.12 |   1 |#
   4 |    -13.07 |  22 |    -12.13 |  15 |###############
   5 |    -12.96 |  15 |    -12.72 |   2 |##
   6 |    -12.46 |  57 |    -12.02 |  17 |#################
   7 |    -12.32 |  71 |    -11.92 |   6 |######
   8 |    -12.26 | 100 |    -12.02 |   6 |######
   9 |    -12.18 |  69 |    -12.18 |   1 |#
  10 |    -11.56 |  12 |    -10.92 |   2 |##
_____|___________|_____|___________|_____|______________________________________


Number of multi-member conformational clusters found = 8, out of 100 runs.

	RMSD TABLE
	__________

_____________________________________________________________________
     |      |      |           |         |                 |
Rank | Sub- | Run  | Binding   | Cluster | Reference       | Grep
     | Rank |      | Energy    | RMSD    | RMSD            | Pattern
_____|______|______|___________|_________|_________________|___________
   1      1     89      -14.30      0.00    126.09           RANKING
   1      2     35      -14.22      0.54    126.19           RANKING
   1      3     52      -14.09      0.90    126.11           RANKING
   1      4     68      -14.08      0.57    126.09           RANKING
   1      5     29      -13.96      1.18    126.42           RANKING
   1      6     82      -13.88      1.03    125.83           RANKING
   1      7     99      -13.75      1.02    125.66           RANKING
   1      8      4      -13.74      0.97    125.97           RANKING
   1      9     39      -13.73      1.44    126.91           RANKING
   1     10     86      -13.73      1.25    125.49           RANKING
   1     11     36      -13.70      1.45    126.36           RANKING
   1     12     23      -13.61      1.95    126.83           RANKING
   1     13     61      -13.55      1.40    126.81           RANKING
   1     14     40      -13.55      0.54    126.12           RANKING
   1     15     70      -13.55      1.09    126.61           RANKING
   1     16     81      -13.52      1.31    126.59           RANKING
   1     17     64      -13.51      1.23    126.37           RANKING
   1     18     34      -13.46      1.23    126.31           RANKING
   1     19     87      -13.43      1.10    126.41           RANKING
   1     20     72      -13.38      1.38    126.11           RANKING
   1     21     77      -13.36      1.20    126.76           RANKING
   1     22     83      -13.32      1.67    126.51           RANKING
   1     23     73      -13.29      1.30    125.73           RANKING
   1     24     49      -13.28      1.85    126.45           RANKING
   1     25     76      -13.24      1.35    125.59           RANKING
   1     26      7      -13.18      1.36    126.64           RANKING
   1     27     16      -13.15      1.04    126.26           RANKING
   1     28     33      -12.91      1.12    126.14           RANKING
   1     29     98      -12.91      1.50    126.80           RANKING
   1     30      2      -12.69      1.90    126.66           RANKING
   1     31     67      -12.54      1.46    125.55           RANKING
   1     32     32      -12.47      1.05    125.99           RANKING
   1     33     54      -12.47      1.65    125.42           RANKING
   1     34     91      -12.34      1.35    125.66           RANKING
   1     35     62      -11.75      1.70    125.17           RANKING
   2      1     66      -13.36      0.00    122.27           RANKING
   2      2     65      -13.33      1.62    122.41           RANKING
   2      3     80      -12.97      1.05    122.43           RANKING
   2      4      8      -12.87      1.47    122.72           RANKING
   2      5     41      -12.81      1.71    122.21           RANKING
   2      6     38      -12.73      1.01    121.68           RANKING
   2      7     94      -12.55      1.40    121.85           RANKING
   2      8      1      -12.54      1.16    121.71           RANKING
   2      9     28      -12.51      1.96    122.57           RANKING
   2     10     14      -12.50      1.36    122.29           RANKING
   2     11     63      -12.43      1.74    122.63           RANKING
   2     12     46      -12.43      1.67    122.06           RANKING
   2     13     20      -12.24      0.94    122.05           RANKING
   2     14     13      -12.07      1.95    121.50           RANKING
   2     15     11      -11.62      1.59    121.42           RANKING
   3      1     53      -13.12      0.00    121.86           RANKING
   4      1     22      -13.07      0.00    125.01           RANKING
   4      2     58      -12.68      0.99    125.24           RANKING
   4      3     95      -12.32      1.64    125.64           RANKING
   4      4     47      -12.31      1.19    125.20           RANKING
   4      5     48      -12.20      1.01    124.51           RANKING
   4      6      3      -12.15      1.14    124.81           RANKING
   4      7     21      -12.14      1.78    124.77           RANKING
   4      8     44      -12.08      1.78    125.33           RANKING
   4      9     55      -12.08      1.52    125.07           RANKING
   4     10      5      -12.06      1.45    125.10           RANKING
   4     11     30      -11.88      1.53    124.81           RANKING
   4     12     31      -11.81      1.91    124.87           RANKING
   4     13     56      -11.79      1.29    125.12           RANKING
   4     14     60      -11.71      1.90    124.34           RANKING
   4     15      6      -11.63      1.75    124.95           RANKING
   5      1     15      -12.96      0.00    126.91           RANKING
   5      2     84      -12.47      1.09    126.79           RANKING
   6      1     57      -12.46      0.00    122.29           RANKING
   6      2      9      -12.44      1.17    122.41           RANKING
   6      3     75      -12.41      1.45    121.99           RANKING
   6      4     93      -12.41      0.91    122.46           RANKING
   6      5     18      -12.38      1.49    121.90           RANKING
   6      6     96      -12.36      1.17    121.91           RANKING
   6      7     43      -12.34      1.15    122.44           RANKING
   6      8     78      -12.34      1.87    121.69           RANKING
   6      9     51      -12.31      0.97    121.80           RANKING
   6     10     24      -12.23      0.84    121.90           RANKING
   6     11     79      -11.76      1.34    122.01           RANKING
   6     12     50      -11.74      1.39    122.03           RANKING
   6     13     59      -11.72      1.13    122.09           RANKING
   6     14     26      -11.61      1.48    121.38           RANKING
   6     15     25      -11.41      1.46    121.47           RANKING
   6     16     10      -11.32      1.42    121.99           RANKING
   6     17     17      -11.14      1.71    121.47           RANKING
   7      1     71      -12.32      0.00    128.26           RANKING
   7      2     42      -12.15      1.80    127.09           RANKING
   7      3     27      -11.91      1.48    127.21           RANKING
   7      4     97      -11.82      1.08    127.47           RANKING
   7      5     45      -11.81      1.29    127.27           RANKING
   7      6     19      -11.49      1.45    127.21           RANKING
   8      1    100      -12.26      0.00    124.52           RANKING
   8      2     88      -12.17      1.66    123.45           RANKING
   8      3     85      -12.07      1.78    125.64           RANKING
   8      4     90      -11.93      0.98    124.38           RANKING
   8      5     37      -11.93      1.47    123.76           RANKING
   8      6     92      -11.77      1.25    124.40           RANKING
   9      1     69      -12.18      0.00    127.09           RANKING
  10      1     12      -11.56      0.00    120.71           RANKING
  10      2     74      -10.28      1.69    121.35           RANKING
_______________________________________________________________________



	INFORMATION ENTROPY ANALYSIS FOR THIS CLUSTERING
	________________________________________________


Information entropy for this clustering = 0.40  (rmstol = 2.00 Angstrom)

_______________________________________________________________________


	STATISTICAL MECHANICAL ANALYSIS
	_______________________________


Partition function, Q =   102.15            at Temperature, T = 298.15 K
Free energy,        A ~ -2741.07 kcal/mol   at Temperature, T = 298.15 K
Internal energy,    U =   -12.59 kcal/mol   at Temperature, T = 298.15 K
Entropy,            S =     9.15 kcal/mol/K at Temperature, T = 298.15 K

_______________________________________________________________________


	LOWEST ENERGY DOCKED CONFORMATION from EACH CLUSTER
	___________________________________________________



Keeping original residue number (specified in the input PDBQ file) for outputting.

MODEL       89
USER    Run = 89
USER    Cluster Rank = 1
USER    Number of conformations in this cluster = 35
USER  
USER    RMSD from reference structure       = 126.094 A
USER  
USER    Estimated Free Energy of Binding    =  -14.30 kcal/mol  [=(1)+(2)+(3)-(4)]
USER    Estimated Inhibition Constant, Ki   =   32.85 pM (picomolar)  [Temperature = 298.15 K]
USER    
USER    (1) Final Intermolecular Energy     =  -16.99 kcal/mol
USER        vdW + Hbond + desolv Energy     =  -16.99 kcal/mol
USER        Electrostatic Energy            =   +0.00 kcal/mol
USER    (2) Final Total Internal Energy     =   -1.55 kcal/mol
USER    (3) Torsional Free Energy           =   +2.68 kcal/mol
USER    (4) Unbound System's Energy  [=(2)] =   -1.55 kcal/mol
USER    
USER    
USER  
USER    DPF = ligand_dock.biased.dpf
USER    NEWDPF move	ligand.dum.pdbqt
USER    NEWDPF about	1.619000 0.086000 0.013000
USER    NEWDPF tran0	37.860316 16.675269 123.792764
USER    NEWDPF axisangle0	0.640600 0.722562 -0.259878 -64.208120
USER    NEWDPF quaternion0	0.340452 0.384012 -0.138114 -0.847084
USER    NEWDPF dihe0	-88.88 -173.63 166.77 -15.56 -27.65 70.28 168.16 -96.81 -168.82 
USER  
USER                              x       y       z    vdW   Elec        q     RMS 
ATOM      1  C   UNL     1      36.632  18.049 122.262 -0.18 -0.00    +0.000    126.094
ATOM      2  C   UNL     1      35.785  17.944 123.498 -0.24 -0.00    +0.000    126.094
ATOM      3  C   UNL     1      35.410  16.690 124.002 -0.37 -0.00    +0.000    126.094
ATOM      4  C   UNL     1      34.606  16.597 125.143 -0.38 -0.00    +0.000    126.094
ATOM      5  C   UNL     1      34.155  17.759 125.785 -0.34 -0.00    +0.000    126.094
ATOM      6  C   UNL     1      33.340  17.676 126.924 -0.32 -0.00    +0.000    126.094
ATOM      7  C   UNL     1      32.861  18.842 127.544 -0.20 -0.00    +0.000    126.094
ATOM      8  C   UNL     1      33.240  20.096 127.040 -0.17 -0.00    +0.000    126.094
ATOM      9  C   UNL     1      34.058  20.189 125.910 -0.16 -0.00    +0.000    126.094
ATOM     10  C   UNL     1      34.517  19.027 125.272 -0.24 -0.00    +0.000    126.094
ATOM     11  C   UNL     1      35.331  19.111 124.133 -0.19 -0.00    +0.000    126.094
ATOM     12  CM  UNL     1      34.967  17.854 124.639 -0.43 -0.00    +0.000    126.094
ATOM     13  CM  UNL     1      33.695  18.932 126.413 -0.02 -0.00    +0.000    126.094
ATOM     14  C   UNL     1      31.996  18.744 128.775 -0.20 -0.00    +0.000    126.094
ATOM     15  N   UNL     1      30.602  18.400 128.416 -0.34 -0.00    +0.000    126.094
ATOM     16  H   UNL     1      30.729  17.854 127.563 -0.53 -0.00    +0.000    126.094
ATOM     17  C   UNL     1      29.944  17.470 129.358 -0.37 -0.00    +0.000    126.094
ATOM     18  C   UNL     1      30.919  16.731 130.277 -0.36 -0.00    +0.000    126.094
ATOM     19  C   UNL     1      29.745  19.507 127.919 -0.41 -0.00    +0.000    126.094
ATOM     20  C   UNL     1      28.735  19.104 126.835 -0.62 -0.00    +0.000    126.094
ATOM     21  O   UNL     1      37.881  17.408 122.494 -0.16 -0.00    +0.000    126.094
ATOM     22  O   UNL     1      39.210  15.524 122.410 -0.35 -0.00    +0.000    126.094
ATOM     23  C   UNL     1      38.051  16.024 122.398 -0.28 -0.00    +0.000    126.094
ATOM     24  N   UNL     1      36.896  15.190 122.237 -0.30 -0.00    +0.000    126.094
ATOM     25  H   UNL     1      36.024  15.631 122.114 -0.01 -0.00    +0.000    126.094
ATOM     26  C   UNL     1      36.925  13.753 122.247 -0.40 -0.00    +0.000    126.094
ATOM     27  C   UNL     1      37.421  13.067 121.128 -0.43 -0.00    +0.000    126.094
ATOM     28  C   UNL     1      37.437  11.671 121.100 -0.39 -0.00    +0.000    126.094
ATOM     29  C   UNL     1      36.934  10.929 122.184 -0.51 -0.00    +0.000    126.094
ATOM     30  C   UNL     1      36.431  11.618 123.302 -0.62 -0.00    +0.000    126.094
ATOM     31  C   UNL     1      36.416  13.016 123.329 -0.56 -0.00    +0.000    126.094
ATOM     32  CM  UNL     1      36.927  12.342 122.215 +0.00 -0.00    +0.000    126.094
ATOM     33  C   UNL     1      36.940   9.444 122.172 -0.65 -0.00    +0.000    126.094
ATOM     34  N   UNL     1      37.169   8.688 123.366 -0.63 -0.00    +0.000    126.094
ATOM     35  O   UNL     1      37.067   7.339 123.347 -2.39 -0.00    +0.000    126.094
ATOM     36  O   UNL     1      36.753   8.831 121.085 -2.62 -0.00    +0.000    126.094
ATOM     37  H   UNL     1      37.403   9.151 124.202 -0.62 -0.00    +0.000    126.094
TER
ENDMDL
MODEL       66
USER    Run = 66
USER    Cluster Rank = 2
USER    Number of conformations in this cluster = 15
USER  
USER    RMSD from reference structure       = 122.273 A
USER  
USER    Estimated Free Energy of Binding    =  -13.36 kcal/mol  [=(1)+(2)+(3)-(4)]
USER    Estimated Inhibition Constant, Ki   =  160.87 pM (picomolar)  [Temperature = 298.15 K]
USER    
USER    (1) Final Intermolecular Energy     =  -16.05 kcal/mol
USER        vdW + Hbond + desolv Energy     =  -16.05 kcal/mol
USER        Electrostatic Energy            =   +0.00 kcal/mol
USER    (2) Final Total Internal Energy     =   -1.70 kcal/mol
USER    (3) Torsional Free Energy           =   +2.68 kcal/mol
USER    (4) Unbound System's Energy  [=(2)] =   -1.70 kcal/mol
USER    
USER    
USER  
USER    DPF = ligand_dock.biased.dpf
USER    NEWDPF move	ligand.dum.pdbqt
USER    NEWDPF about	1.619000 0.086000 0.013000
USER    NEWDPF tran0	34.280892 16.500792 123.339104
USER    NEWDPF axisangle0	0.554837 -0.752362 0.355116 -85.293591
USER    NEWDPF quaternion0	0.375889 -0.509708 0.240583 -0.735544
USER    NEWDPF dihe0	-178.42 -179.82 172.94 -47.31 168.93 -52.29 178.07 -99.88 116.38 
USER  
USER                              x       y       z    vdW   Elec        q     RMS 
ATOM      1  C   UNL     1      35.987  18.167 123.108 -0.24 -0.00    +0.000    122.273
ATOM      2  C   UNL     1      35.276  18.114 121.786 -0.27 -0.00    +0.000    122.273
ATOM      3  C   UNL     1      36.000  18.008 120.589 -0.17 -0.00    +0.000    122.273
ATOM      4  C   UNL     1      35.335  17.977 119.359 -0.16 -0.00    +0.000    122.273
ATOM      5  C   UNL     1      33.937  18.066 119.311 -0.17 -0.00    +0.000    122.273
ATOM      6  C   UNL     1      33.262  18.046 118.081 -0.17 -0.00    +0.000    122.273
ATOM      7  C   UNL     1      31.864  18.170 118.034 -0.21 -0.00    +0.000    122.273
ATOM      8  C   UNL     1      31.140  18.272 119.233 -0.40 -0.00    +0.000    122.273
ATOM      9  C   UNL     1      31.804  18.285 120.464 -0.39 -0.00    +0.000    122.273
ATOM     10  C   UNL     1      33.201  18.188 120.513 -0.32 -0.00    +0.000    122.273
ATOM     11  C   UNL     1      33.876  18.209 121.743 -0.15 -0.00    +0.000    122.273
ATOM     12  CM  UNL     1      34.605  18.094 120.550 +0.00 -0.00    +0.000    122.273
ATOM     13  CM  UNL     1      32.534  18.171 119.273 +0.00 -0.00    +0.000    122.273
ATOM     14  C   UNL     1      31.145  18.135 116.709 -0.14 -0.00    +0.000    122.273
ATOM     15  N   UNL     1      30.216  16.986 116.640 -0.19 -0.00    +0.000    122.273
ATOM     16  H   UNL     1      30.378  16.525 117.537 -0.01 -0.00    +0.000    122.273
ATOM     17  C   UNL     1      28.785  17.357 116.668 -0.23 -0.00    +0.000    122.273
ATOM     18  C   UNL     1      28.094  17.050 117.998 -0.41 -0.00    +0.000    122.273
ATOM     19  C   UNL     1      30.567  15.896 115.694 -0.27 -0.00    +0.000    122.273
ATOM     20  C   UNL     1      30.334  14.476 116.230 -0.41 -0.00    +0.000    122.273
ATOM     21  O   UNL     1      35.322  17.312 124.032 -0.35 -0.00    +0.000    122.273
ATOM     22  O   UNL     1      34.880  15.213 124.881 -0.61 -0.00    +0.000    122.273
ATOM     23  C   UNL     1      35.479  15.923 124.027 -0.48 -0.00    +0.000    122.273
ATOM     24  N   UNL     1      36.364  15.326 123.069 -0.38 -0.00    +0.000    122.273
ATOM     25  H   UNL     1      36.900  15.927 122.501 -0.00 -0.00    +0.000    122.273
ATOM     26  C   UNL     1      36.520  13.910 122.881 -0.44 -0.00    +0.000    122.273
ATOM     27  C   UNL     1      37.114  13.433 121.704 -0.40 -0.00    +0.000    122.273
ATOM     28  C   UNL     1      37.254  12.060 121.484 -0.46 -0.00    +0.000    122.273
ATOM     29  C   UNL     1      36.781  11.133 122.431 -0.56 -0.00    +0.000    122.273
ATOM     30  C   UNL     1      36.180  11.614 123.608 -0.61 -0.00    +0.000    122.273
ATOM     31  C   UNL     1      36.041  12.988 123.826 -0.53 -0.00    +0.000    122.273
ATOM     32  CM  UNL     1      36.648  12.523 122.656 +0.00 -0.00    +0.000    122.273
ATOM     33  C   UNL     1      36.918   9.671 122.214 -0.63 -0.00    +0.000    122.273
ATOM     34  N   UNL     1      37.042   8.761 123.313 -0.66 -0.00    +0.000    122.273
ATOM     35  O   UNL     1      37.061   7.427 123.092 -2.37 -0.00    +0.000    122.273
ATOM     36  O   UNL     1      36.941   9.217 121.037 -2.69 -0.00    +0.000    122.273
ATOM     37  H   UNL     1      37.113   9.108 124.231 -0.57 -0.00    +0.000    122.273
TER
ENDMDL
MODEL       53
USER    Run = 53
USER    Cluster Rank = 3
USER    Number of conformations in this cluster = 1
USER  
USER    RMSD from reference structure       = 121.860 A
USER  
USER    Estimated Free Energy of Binding    =  -13.12 kcal/mol  [=(1)+(2)+(3)-(4)]
USER    Estimated Inhibition Constant, Ki   =  241.79 pM (picomolar)  [Temperature = 298.15 K]
USER    
USER    (1) Final Intermolecular Energy     =  -15.80 kcal/mol
USER        vdW + Hbond + desolv Energy     =  -15.80 kcal/mol
USER        Electrostatic Energy            =   +0.00 kcal/mol
USER    (2) Final Total Internal Energy     =   -1.67 kcal/mol
USER    (3) Torsional Free Energy           =   +2.68 kcal/mol
USER    (4) Unbound System's Energy  [=(2)] =   -1.67 kcal/mol
USER    
USER    
USER  
USER    DPF = ligand_dock.biased.dpf
USER    NEWDPF move	ligand.dum.pdbqt
USER    NEWDPF about	1.619000 0.086000 0.013000
USER    NEWDPF tran0	36.139102 17.004136 118.777429
USER    NEWDPF axisangle0	-0.991782 0.127512 -0.010414 154.245644
USER    NEWDPF quaternion0	-0.966839 0.124305 -0.010152 0.222862
USER    NEWDPF dihe0	-103.57 -179.65 168.06 16.75 1.84 176.13 134.41 103.09 2.75 
USER  
USER                              x       y       z    vdW   Elec        q     RMS 
ATOM      1  C   UNL     1      36.650  18.220 120.777 -0.15 -0.00    +0.000    121.860
ATOM      2  C   UNL     1      35.181  18.417 120.535 -0.23 -0.00    +0.000    121.860
ATOM      3  C   UNL     1      34.234  17.922 121.445 -0.32 -0.00    +0.000    121.860
ATOM      4  C   UNL     1      32.867  18.092 121.207 -0.18 -0.00    +0.000    121.860
ATOM      5  C   UNL     1      32.429  18.747 120.047 -0.39 -0.00    +0.000    121.860
ATOM      6  C   UNL     1      31.058  18.914 119.795 -0.45 -0.00    +0.000    121.860
ATOM      7  C   UNL     1      30.623  19.540 118.615 -0.30 -0.00    +0.000    121.860
ATOM      8  C   UNL     1      31.571  20.037 117.707 -0.16 -0.00    +0.000    121.860
ATOM      9  C   UNL     1      32.939  19.882 117.954 -0.17 -0.00    +0.000    121.860
ATOM     10  C   UNL     1      33.378  19.235 119.118 -0.25 -0.00    +0.000    121.860
ATOM     11  C   UNL     1      34.748  19.068 119.369 -0.19 -0.00    +0.000    121.860
ATOM     12  CM  UNL     1      33.806  18.580 120.287 +0.00 -0.00    +0.000    121.860
ATOM     13  CM  UNL     1      31.999  19.393 118.872 +0.00 -0.00    +0.000    121.860
ATOM     14  C   UNL     1      29.149  19.725 118.357 -0.27 -0.00    +0.000    121.860
ATOM     15  N   UNL     1      28.410  18.462 118.573 -0.30 -0.00    +0.000    121.860
ATOM     16  H   UNL     1      28.584  18.278 119.562 -0.58 -0.00    +0.000    121.860
ATOM     17  C   UNL     1      26.940  18.592 118.473 -0.31 -0.00    +0.000    121.860
ATOM     18  C   UNL     1      26.411  19.957 118.917 -0.31 -0.00    +0.000    121.860
ATOM     19  C   UNL     1      28.979  17.238 117.954 -0.39 -0.00    +0.000    121.860
ATOM     20  C   UNL     1      28.926  15.983 118.837 -0.40 +0.00    +0.000    121.860
ATOM     21  O   UNL     1      37.165  17.304 119.817 -0.11 -0.00    +0.000    121.860
ATOM     22  O   UNL     1      36.663  15.239 118.920 -0.24 -0.00    +0.000    121.860
ATOM     23  C   UNL     1      36.999  15.920 119.927 -0.20 -0.00    +0.000    121.860
ATOM     24  N   UNL     1      37.171  15.298 121.208 -0.24 -0.00    +0.000    121.860
ATOM     25  H   UNL     1      37.315  15.882 121.988 +0.00 -0.00    +0.000    121.860
ATOM     26  C   UNL     1      37.147  13.878 121.429 -0.34 -0.00    +0.000    121.860
ATOM     27  C   UNL     1      37.594  13.016 120.418 -0.43 -0.00    +0.000    121.860
ATOM     28  C   UNL     1      37.558  11.631 120.596 -0.37 -0.00    +0.000    121.860
ATOM     29  C   UNL     1      37.050  11.077 121.786 -0.46 -0.00    +0.000    121.860
ATOM     30  C   UNL     1      36.595  11.943 122.796 -0.59 -0.00    +0.000    121.860
ATOM     31  C   UNL     1      36.633  13.329 122.616 -0.46 -0.00    +0.000    121.860
ATOM     32  CM  UNL     1      37.096  12.479 121.607 +0.00 -0.00    +0.000    121.860
ATOM     33  C   UNL     1      37.000   9.608 121.993 -0.62 -0.00    +0.000    121.860
ATOM     34  N   UNL     1      37.199   9.029 123.287 -0.57 -0.00    +0.000    121.860
ATOM     35  O   UNL     1      37.046   7.697 123.467 -2.67 -0.00    +0.000    121.860
ATOM     36  O   UNL     1      36.793   8.848 121.007 -2.64 -0.00    +0.000    121.860
ATOM     37  H   UNL     1      37.448   9.602 124.048 -0.55 -0.00    +0.000    121.860
TER
ENDMDL
MODEL       22
USER    Run = 22
USER    Cluster Rank = 4
USER    Number of conformations in this cluster = 15
USER  
USER    RMSD from reference structure       = 125.014 A
USER  
USER    Estimated Free Energy of Binding    =  -13.07 kcal/mol  [=(1)+(2)+(3)-(4)]
USER    Estimated Inhibition Constant, Ki   =  264.55 pM (picomolar)  [Temperature = 298.15 K]
USER    
USER    (1) Final Intermolecular Energy     =  -15.75 kcal/mol
USER        vdW + Hbond + desolv Energy     =  -15.75 kcal/mol
USER        Electrostatic Energy            =   +0.00 kcal/mol
USER    (2) Final Total Internal Energy     =   -1.92 kcal/mol
USER    (3) Torsional Free Energy           =   +2.68 kcal/mol
USER    (4) Unbound System's Energy  [=(2)] =   -1.92 kcal/mol
USER    
USER    
USER  
USER    DPF = ligand_dock.biased.dpf
USER    NEWDPF move	ligand.dum.pdbqt
USER    NEWDPF about	1.619000 0.086000 0.013000
USER    NEWDPF tran0	35.673590 16.171108 124.264456
USER    NEWDPF axisangle0	0.067410 -0.378638 0.923087 -164.325206
USER    NEWDPF quaternion0	0.066780 -0.375101 0.914464 -0.136362
USER    NEWDPF dihe0	6.71 103.23 8.47 -54.67 135.72 64.73 -126.82 136.72 -13.33 
USER  
USER                              x       y       z    vdW   Elec        q     RMS 
ATOM      1  C   UNL     1      35.383  18.117 122.898 -0.30 -0.00    +0.000    125.014
ATOM      2  C   UNL     1      36.781  17.632 122.638 -0.17 -0.00    +0.000    125.014
ATOM      3  C   UNL     1      37.072  16.871 121.497 -0.15 -0.00    +0.000    125.014
ATOM      4  C   UNL     1      38.372  16.406 121.268 -0.15 -0.00    +0.000    125.014
ATOM      5  C   UNL     1      39.393  16.686 122.188 -0.18 -0.00    +0.000    125.014
ATOM      6  C   UNL     1      40.697  16.216 121.972 -0.26 -0.00    +0.000    125.014
ATOM      7  C   UNL     1      41.710  16.469 122.912 -0.37 -0.00    +0.000    125.014
ATOM      8  C   UNL     1      41.417  17.234 124.052 -0.23 -0.00    +0.000    125.014
ATOM      9  C   UNL     1      40.121  17.713 124.271 -0.23 -0.00    +0.000    125.014
ATOM     10  C   UNL     1      39.102  17.441 123.348 -0.20 -0.00    +0.000    125.014
ATOM     11  C   UNL     1      37.798  17.910 123.565 -0.17 -0.00    +0.000    125.014
ATOM     12  CM  UNL     1      38.086  17.158 122.417 +0.00 -0.00    +0.000    125.014
ATOM     13  CM  UNL     1      40.407  16.960 123.124 +0.00 -0.00    +0.000    125.014
ATOM     14  C   UNL     1      43.111  15.970 122.667 -0.34 -0.00    +0.000    125.014
ATOM     15  N   UNL     1      43.872  16.920 121.826 -0.27 -0.00    +0.000    125.014
ATOM     16  H   UNL     1      43.145  17.569 121.524 +0.00 -0.00    +0.000    125.014
ATOM     17  C   UNL     1      44.834  17.759 122.572 -0.29 -0.00    +0.000    125.014
ATOM     18  C   UNL     1      46.137  17.038 122.923 -0.37 +0.00    +0.000    125.014
ATOM     19  C   UNL     1      44.360  16.414 120.516 -0.24 -0.00    +0.000    125.014
ATOM     20  C   UNL     1      43.257  15.972 119.545 -0.23 -0.00    +0.000    125.014
ATOM     21  O   UNL     1      34.717  17.192 123.750 -0.41 -0.00    +0.000    125.014
ATOM     22  O   UNL     1      33.706  15.138 123.467 -0.62 -0.00    +0.000    125.014
ATOM     23  C   UNL     1      34.771  15.809 123.557 -0.51 -0.00    +0.000    125.014
ATOM     24  N   UNL     1      36.050  15.162 123.510 -0.45 -0.00    +0.000    125.014
ATOM     25  H   UNL     1      36.848  15.706 123.703 -0.02 -0.00    +0.000    125.014
ATOM     26  C   UNL     1      36.245  13.773 123.198 -0.47 -0.00    +0.000    125.014
ATOM     27  C   UNL     1      36.040  12.808 124.195 -0.32 -0.00    +0.000    125.014
ATOM     28  C   UNL     1      36.247  11.453 123.927 -0.54 -0.00    +0.000    125.014
ATOM     29  C   UNL     1      36.688  11.035 122.658 -0.59 -0.00    +0.000    125.014
ATOM     30  C   UNL     1      36.900  12.005 121.661 -0.50 -0.00    +0.000    125.014
ATOM     31  C   UNL     1      36.691  13.361 121.931 -0.35 -0.00    +0.000    125.014
ATOM     32  CM  UNL     1      36.469  12.406 122.928 +0.00 -0.00    +0.000    125.014
ATOM     33  C   UNL     1      36.917   9.600 122.354 -0.64 -0.00    +0.000    125.014
ATOM     34  N   UNL     1      36.986   8.619 123.394 -0.66 -0.00    +0.000    125.014
ATOM     35  O   UNL     1      37.092   7.306 123.085 -2.27 -0.00    +0.000    125.014
ATOM     36  O   UNL     1      37.067   9.235 121.156 -2.72 -0.00    +0.000    125.014
ATOM     37  H   UNL     1      36.958   8.900 124.337 -0.50 -0.00    +0.000    125.014
TER
ENDMDL
MODEL       15
USER    Run = 15
USER    Cluster Rank = 5
USER    Number of conformations in this cluster = 2
USER  
USER    RMSD from reference structure       = 126.908 A
USER  
USER    Estimated Free Energy of Binding    =  -12.96 kcal/mol  [=(1)+(2)+(3)-(4)]
USER    Estimated Inhibition Constant, Ki   =  313.81 pM (picomolar)  [Temperature = 298.15 K]
USER    
USER    (1) Final Intermolecular Energy     =  -15.65 kcal/mol
USER        vdW + Hbond + desolv Energy     =  -15.65 kcal/mol
USER        Electrostatic Energy            =   +0.00 kcal/mol
USER    (2) Final Total Internal Energy     =   -1.70 kcal/mol
USER    (3) Torsional Free Energy           =   +2.68 kcal/mol
USER    (4) Unbound System's Energy  [=(2)] =   -1.70 kcal/mol
USER    
USER    
USER  
USER    DPF = ligand_dock.biased.dpf
USER    NEWDPF move	ligand.dum.pdbqt
USER    NEWDPF about	1.619000 0.086000 0.013000
USER    NEWDPF tran0	36.926612 16.451906 122.960840
USER    NEWDPF axisangle0	0.745441 0.624585 -0.232834 -94.966375
USER    NEWDPF quaternion0	0.549449 0.460369 -0.171617 -0.675807
USER    NEWDPF dihe0	153.69 72.33 -7.20 152.85 -180.00 0.85 79.99 -120.50 -177.39 
USER  
USER                              x       y       z    vdW   Elec        q     RMS 
ATOM      1  C   UNL     1      35.854  18.553 122.545 -0.24 -0.00    +0.000    126.908
ATOM      2  C   UNL     1      35.227  18.007 123.796 -0.29 -0.00    +0.000    126.908
ATOM      3  C   UNL     1      34.479  16.822 123.761 -0.43 -0.00    +0.000    126.908
ATOM      4  C   UNL     1      33.882  16.327 124.926 -0.27 -0.00    +0.000    126.908
ATOM      5  C   UNL     1      34.015  17.021 126.137 -0.36 -0.00    +0.000    126.908
ATOM      6  C   UNL     1      33.412  16.537 127.308 -0.37 -0.00    +0.000    126.908
ATOM      7  C   UNL     1      33.518  17.253 128.511 -0.28 -0.00    +0.000    126.908
ATOM      8  C   UNL     1      34.270  18.438 128.544 -0.14 -0.00    +0.000    126.908
ATOM      9  C   UNL     1      34.881  18.924 127.384 -0.15 -0.00    +0.000    126.908
ATOM     10  C   UNL     1      34.756  18.226 126.175 -0.25 -0.00    +0.000    126.908
ATOM     11  C   UNL     1      35.359  18.710 125.004 -0.23 -0.00    +0.000    126.908
ATOM     12  CM  UNL     1      34.620  17.518 124.966 -0.44 -0.00    +0.000    126.908
ATOM     13  CM  UNL     1      34.142  17.733 127.343 -0.01 -0.00    +0.000    126.908
ATOM     14  C   UNL     1      32.877  16.721 129.767 -0.32 -0.00    +0.000    126.908
ATOM     15  N   UNL     1      33.844  16.694 130.886 -0.22 -0.00    +0.000    126.908
ATOM     16  H   UNL     1      33.397  16.051 131.541 -0.01 -0.00    +0.000    126.908
ATOM     17  C   UNL     1      35.135  16.050 130.559 -0.26 -0.00    +0.000    126.908
ATOM     18  C   UNL     1      35.620  15.066 131.626 -0.33 -0.00    +0.000    126.908
ATOM     19  C   UNL     1      33.944  17.921 131.717 -0.12 -0.00    +0.000    126.908
ATOM     20  C   UNL     1      32.643  18.727 131.835 -0.12 -0.00    +0.000    126.908
ATOM     21  O   UNL     1      36.917  17.697 122.141 -0.16 -0.00    +0.000    126.908
ATOM     22  O   UNL     1      36.279  15.966 120.757 -0.22 -0.00    +0.000    126.908
ATOM     23  C   UNL     1      36.735  16.337 121.874 -0.24 -0.00    +0.000    126.908
ATOM     24  N   UNL     1      37.028  15.380 122.901 -0.34 -0.00    +0.000    126.908
ATOM     25  H   UNL     1      37.267  15.722 123.793 -0.03 -0.00    +0.000    126.908
ATOM     26  C   UNL     1      36.998  13.956 122.714 -0.44 -0.00    +0.000    126.908
ATOM     27  C   UNL     1      36.554  13.134 123.760 -0.50 -0.00    +0.000    126.908
ATOM     28  C   UNL     1      36.538  11.744 123.616 -0.62 -0.00    +0.000    126.908
ATOM     29  C   UNL     1      36.990  11.145 122.425 -0.52 -0.00    +0.000    126.908
ATOM     30  C   UNL     1      37.441  11.971 121.379 -0.42 -0.00    +0.000    126.908
ATOM     31  C   UNL     1      37.455  13.361 121.526 -0.42 -0.00    +0.000    126.908
ATOM     32  CM  UNL     1      36.997  12.552 122.570 +0.00 -0.00    +0.000    126.908
ATOM     33  C   UNL     1      36.984   9.671 122.253 -0.62 -0.00    +0.000    126.908
ATOM     34  N   UNL     1      37.137   8.788 123.370 -0.62 -0.00    +0.000    126.908
ATOM     35  O   UNL     1      37.025   7.451 123.200 -2.40 -0.00    +0.000    126.908
ATOM     36  O   UNL     1      36.856   9.180 121.097 -2.67 -0.00    +0.000    126.908
ATOM     37  H   UNL     1      37.325   9.155 124.263 -0.61 -0.00    +0.000    126.908
TER
ENDMDL
MODEL       57
USER    Run = 57
USER    Cluster Rank = 6
USER    Number of conformations in this cluster = 17
USER  
USER    RMSD from reference structure       = 122.287 A
USER  
USER    Estimated Free Energy of Binding    =  -12.46 kcal/mol  [=(1)+(2)+(3)-(4)]
USER    Estimated Inhibition Constant, Ki   =  736.51 pM (picomolar)  [Temperature = 298.15 K]
USER    
USER    (1) Final Intermolecular Energy     =  -15.14 kcal/mol
USER        vdW + Hbond + desolv Energy     =  -15.14 kcal/mol
USER        Electrostatic Energy            =   +0.00 kcal/mol
USER    (2) Final Total Internal Energy     =   -1.96 kcal/mol
USER    (3) Torsional Free Energy           =   +2.68 kcal/mol
USER    (4) Unbound System's Energy  [=(2)] =   -1.96 kcal/mol
USER    
USER    
USER  
USER    DPF = ligand_dock.biased.dpf
USER    NEWDPF move	ligand.dum.pdbqt
USER    NEWDPF about	1.619000 0.086000 0.013000
USER    NEWDPF tran0	34.991840 16.041212 122.729223
USER    NEWDPF axisangle0	-0.161179 0.766605 -0.621561 125.619322
USER    NEWDPF quaternion0	-0.143367 0.681890 -0.552875 0.456948
USER    NEWDPF dihe0	97.45 61.68 152.80 -70.31 -154.33 -84.34 -166.13 -140.79 122.63 
USER  
USER                              x       y       z    vdW   Elec        q     RMS 
ATOM      1  C   UNL     1      36.117  18.115 123.144 -0.24 -0.00    +0.000    122.287
ATOM      2  C   UNL     1      36.776  17.520 121.933 -0.15 -0.00    +0.000    122.287
ATOM      3  C   UNL     1      38.162  17.302 121.910 -0.12 -0.00    +0.000    122.287
ATOM      4  C   UNL     1      38.775  16.764 120.773 -0.11 -0.00    +0.000    122.287
ATOM      5  C   UNL     1      38.010  16.451 119.640 -0.12 -0.00    +0.000    122.287
ATOM      6  C   UNL     1      38.617  15.920 118.492 -0.13 -0.00    +0.000    122.287
ATOM      7  C   UNL     1      37.853  15.640 117.348 -0.14 -0.00    +0.000    122.287
ATOM      8  C   UNL     1      36.466  15.856 117.374 -0.15 -0.00    +0.000    122.287
ATOM      9  C   UNL     1      35.851  16.378 118.517 -0.13 -0.00    +0.000    122.287
ATOM     10  C   UNL     1      36.614  16.683 119.653 -0.14 -0.00    +0.000    122.287
ATOM     11  C   UNL     1      36.006  17.215 120.800 -0.18 -0.00    +0.000    122.287
ATOM     12  CM  UNL     1      37.391  16.989 120.785 +0.00 -0.00    +0.000    122.287
ATOM     13  CM  UNL     1      37.235  16.155 118.504 +0.00 -0.00    +0.000    122.287
ATOM     14  C   UNL     1      38.512  15.059 116.122 -0.25 -0.00    +0.000    122.287
ATOM     15  N   UNL     1      37.538  14.301 115.306 -0.28 -0.00    +0.000    122.287
ATOM     16  H   UNL     1      36.839  14.034 116.001 -0.01 -0.00    +0.000    122.287
ATOM     17  C   UNL     1      36.794  15.123 114.328 -0.18 -0.00    +0.000    122.287
ATOM     18  C   UNL     1      35.980  14.300 113.326 -0.23 -0.00    +0.000    122.287
ATOM     19  C   UNL     1      37.970  12.969 114.812 -0.47 -0.00    +0.000    122.287
ATOM     20  C   UNL     1      39.140  12.343 115.584 -0.52 -0.00    +0.000    122.287
ATOM     21  O   UNL     1      35.009  17.305 123.521 -0.37 -0.00    +0.000    122.287
ATOM     22  O   UNL     1      33.948  15.256 123.503 -0.64 -0.00    +0.000    122.287
ATOM     23  C   UNL     1      35.025  15.910 123.428 -0.48 -0.00    +0.000    122.287
ATOM     24  N   UNL     1      36.284  15.235 123.295 -0.41 -0.00    +0.000    122.287
ATOM     25  H   UNL     1      37.104  15.776 123.361 -0.01 -0.00    +0.000    122.287
ATOM     26  C   UNL     1      36.427  13.823 123.070 -0.47 -0.00    +0.000    122.287
ATOM     27  C   UNL     1      37.267  13.371 122.042 -0.44 -0.00    +0.000    122.287
ATOM     28  C   UNL     1      37.404  12.005 121.785 -0.40 -0.00    +0.000    122.287
ATOM     29  C   UNL     1      36.685  11.060 122.539 -0.58 -0.00    +0.000    122.287
ATOM     30  C   UNL     1      35.838  11.516 123.566 -0.56 -0.00    +0.000    122.287
ATOM     31  C   UNL     1      35.702  12.883 123.822 -0.38 -0.00    +0.000    122.287
ATOM     32  CM  UNL     1      36.553  12.443 122.804 +0.00 -0.00    +0.000    122.287
ATOM     33  C   UNL     1      36.815   9.604 122.280 -0.67 -0.00    +0.000    122.287
ATOM     34  N   UNL     1      37.064   8.676 123.341 -0.66 -0.00    +0.000    122.287
ATOM     35  O   UNL     1      37.076   7.346 123.092 -2.33 -0.00    +0.000    122.287
ATOM     36  O   UNL     1      36.720   9.173 121.098 -2.62 -0.00    +0.000    122.287
ATOM     37  H   UNL     1      37.227   9.006 124.253 -0.58 -0.00    +0.000    122.287
TER
ENDMDL
MODEL       71
USER    Run = 71
USER    Cluster Rank = 7
USER    Number of conformations in this cluster = 6
USER  
USER    RMSD from reference structure       = 128.263 A
USER  
USER    Estimated Free Energy of Binding    =  -12.32 kcal/mol  [=(1)+(2)+(3)-(4)]
USER    Estimated Inhibition Constant, Ki   =  930.41 pM (picomolar)  [Temperature = 298.15 K]
USER    
USER    (1) Final Intermolecular Energy     =  -15.01 kcal/mol
USER        vdW + Hbond + desolv Energy     =  -15.01 kcal/mol
USER        Electrostatic Energy            =   +0.00 kcal/mol
USER    (2) Final Total Internal Energy     =   -1.65 kcal/mol
USER    (3) Torsional Free Energy           =   +2.68 kcal/mol
USER    (4) Unbound System's Energy  [=(2)] =   -1.65 kcal/mol
USER    
USER    
USER  
USER    DPF = ligand_dock.biased.dpf
USER    NEWDPF move	ligand.dum.pdbqt
USER    NEWDPF about	1.619000 0.086000 0.013000
USER    NEWDPF tran0	36.587375 16.994446 124.829667
USER    NEWDPF axisangle0	0.519440 0.265735 -0.812137 -155.814473
USER    NEWDPF quaternion0	0.507914 0.259838 -0.794115 -0.209495
USER    NEWDPF dihe0	-175.28 -72.43 -180.00 108.32 -68.57 61.22 5.33 104.28 -176.52 
USER  
USER                              x       y       z    vdW   Elec        q     RMS 
ATOM      1  C   UNL     1      37.888  18.691 123.748 -0.15 -0.00    +0.000    128.263
ATOM      2  C   UNL     1      38.399  18.611 125.158 -0.17 -0.00    +0.000    128.263
ATOM      3  C   UNL     1      37.565  18.931 126.240 -0.13 -0.00    +0.000    128.263
ATOM      4  C   UNL     1      38.051  18.873 127.550 -0.11 -0.00    +0.000    128.263
ATOM      5  C   UNL     1      39.383  18.508 127.793 -0.21 -0.00    +0.000    128.263
ATOM      6  C   UNL     1      39.881  18.456 129.104 -0.24 -0.00    +0.000    128.263
ATOM      7  C   UNL     1      41.225  18.123 129.342 -0.35 -0.00    +0.000    128.263
ATOM      8  C   UNL     1      42.058  17.800 128.258 -0.45 -0.00    +0.000    128.263
ATOM      9  C   UNL     1      41.567  17.842 126.949 -0.28 -0.00    +0.000    128.263
ATOM     10  C   UNL     1      40.233  18.198 126.706 -0.31 -0.00    +0.000    128.263
ATOM     11  C   UNL     1      39.735  18.251 125.395 -0.24 -0.00    +0.000    128.263
ATOM     12  CM  UNL     1      38.894  18.562 126.474 +0.00 -0.00    +0.000    128.263
ATOM     13  CM  UNL     1      40.725  18.155 128.025 +0.00 -0.00    +0.000    128.263
ATOM     14  C   UNL     1      41.750  18.059 130.753 -0.28 -0.00    +0.000    128.263
ATOM     15  N   UNL     1      42.849  19.029 130.955 -0.17 -0.00    +0.000    128.263
ATOM     16  H   UNL     1      42.791  19.213 131.957 +0.00 -0.00    +0.000    128.263
ATOM     17  C   UNL     1      44.202  18.466 130.759 -0.32 -0.00    +0.000    128.263
ATOM     18  C   UNL     1      44.945  18.180 132.066 -0.26 -0.00    +0.000    128.263
ATOM     19  C   UNL     1      42.648  20.394 130.404 -0.10 -0.00    +0.000    128.263
ATOM     20  C   UNL     1      43.596  20.773 129.258 -0.13 -0.00    +0.000    128.263
ATOM     21  O   UNL     1      36.921  17.667 123.541 -0.22 -0.00    +0.000    128.263
ATOM     22  O   UNL     1      38.471  15.963 123.423 -0.34 -0.00    +0.000    128.263
ATOM     23  C   UNL     1      37.268  16.330 123.325 -0.31 -0.00    +0.000    128.263
ATOM     24  N   UNL     1      36.246  15.398 122.944 -0.36 -0.00    +0.000    128.263
ATOM     25  H   UNL     1      35.345  15.752 122.763 -0.02 -0.00    +0.000    128.263
ATOM     26  C   UNL     1      36.450  13.982 122.810 -0.41 -0.00    +0.000    128.263
ATOM     27  C   UNL     1      36.969  13.472 121.611 -0.35 -0.00    +0.000    128.263
ATOM     28  C   UNL     1      37.152  12.097 121.444 -0.48 -0.00    +0.000    128.263
ATOM     29  C   UNL     1      36.798  11.199 122.468 -0.56 -0.00    +0.000    128.263
ATOM     30  C   UNL     1      36.271  11.713 123.667 -0.62 -0.00    +0.000    128.263
ATOM     31  C   UNL     1      36.089  13.089 123.832 -0.53 -0.00    +0.000    128.263
ATOM     32  CM  UNL     1      36.621  12.592 122.639 +0.00 -0.00    +0.000    128.263
ATOM     33  C   UNL     1      36.982   9.735 122.309 -0.61 -0.00    +0.000    128.263
ATOM     34  N   UNL     1      37.084   8.867 123.443 -0.61 -0.00    +0.000    128.263
ATOM     35  O   UNL     1      37.148   7.527 123.270 -2.45 -0.00    +0.000    128.263
ATOM     36  O   UNL     1      37.066   9.242 121.151 -2.72 -0.00    +0.000    128.263
ATOM     37  H   UNL     1      37.108   9.247 124.350 -0.52 -0.00    +0.000    128.263
TER
ENDMDL
MODEL      100
USER    Run = 100
USER    Cluster Rank = 8
USER    Number of conformations in this cluster = 6
USER  
USER    RMSD from reference structure       = 124.516 A
USER  
USER    Estimated Free Energy of Binding    =  -12.26 kcal/mol  [=(1)+(2)+(3)-(4)]
USER    Estimated Inhibition Constant, Ki   =    1.04 nM (nanomolar)  [Temperature = 298.15 K]
USER    
USER    (1) Final Intermolecular Energy     =  -14.94 kcal/mol
USER        vdW + Hbond + desolv Energy     =  -14.94 kcal/mol
USER        Electrostatic Energy            =   +0.00 kcal/mol
USER    (2) Final Total Internal Energy     =   -1.58 kcal/mol
USER    (3) Torsional Free Energy           =   +2.68 kcal/mol
USER    (4) Unbound System's Energy  [=(2)] =   -1.58 kcal/mol
USER    
USER    
USER  
USER    DPF = ligand_dock.biased.dpf
USER    NEWDPF move	ligand.dum.pdbqt
USER    NEWDPF about	1.619000 0.086000 0.013000
USER    NEWDPF tran0	37.406217 16.321448 122.192770
USER    NEWDPF axisangle0	0.118776 0.717327 -0.686538 157.171966
USER    NEWDPF quaternion0	0.116427 0.703140 -0.672960 0.197897
USER    NEWDPF dihe0	-108.27 -174.92 167.40 82.37 -31.76 130.76 -60.06 -173.60 167.42 
USER  
USER                              x       y       z    vdW   Elec        q     RMS 
ATOM      1  C   UNL     1      38.140  18.566 122.597 -0.11 -0.00    +0.000    124.516
ATOM      2  C   UNL     1      39.382  17.765 122.329 -0.12 -0.00    +0.000    124.516
ATOM      3  C   UNL     1      39.946  16.965 123.333 -0.22 -0.00    +0.000    124.516
ATOM      4  C   UNL     1      41.113  16.234 123.084 -0.35 -0.00    +0.000    124.516
ATOM      5  C   UNL     1      41.738  16.308 121.831 -0.29 -0.00    +0.000    124.516
ATOM      6  C   UNL     1      42.914  15.586 121.575 -0.27 -0.00    +0.000    124.516
ATOM      7  C   UNL     1      43.556  15.689 120.330 -0.23 -0.00    +0.000    124.516
ATOM      8  C   UNL     1      42.987  16.488 119.325 -0.16 -0.00    +0.000    124.516
ATOM      9  C   UNL     1      41.811  17.204 119.569 -0.09 -0.00    +0.000    124.516
ATOM     10  C   UNL     1      41.181  17.125 120.819 -0.12 -0.00    +0.000    124.516
ATOM     11  C   UNL     1      40.006  17.847 121.074 -0.06 -0.00    +0.000    124.516
ATOM     12  CM  UNL     1      40.561  17.040 122.079 +0.00 -0.00    +0.000    124.516
ATOM     13  CM  UNL     1      42.365  16.400 120.575 +0.00 -0.00    +0.000    124.516
ATOM     14  C   UNL     1      44.813  14.902 120.059 -0.32 +0.00    +0.000    124.516
ATOM     15  N   UNL     1      46.001  15.599 120.599 -0.31 +0.00    +0.000    124.516
ATOM     16  H   UNL     1      46.438  14.869 121.164 -0.04 +0.00    +0.000    124.516
ATOM     17  C   UNL     1      47.019  15.942 119.583 -0.24 +0.00    +0.000    124.516
ATOM     18  C   UNL     1      47.166  14.892 118.480 -0.39 +0.00    +0.000    124.516
ATOM     19  C   UNL     1      45.757  16.644 121.626 -0.29 +0.00    +0.000    124.516
ATOM     20  C   UNL     1      46.816  16.719 122.735 -0.40 +0.00    +0.000    124.516
ATOM     21  O   UNL     1      36.997  17.741 122.398 -0.16 -0.00    +0.000    124.516
ATOM     22  O   UNL     1      37.705  15.996 121.064 -0.20 -0.00    +0.000    124.516
ATOM     23  C   UNL     1      37.090  16.378 122.098 -0.24 -0.00    +0.000    124.516
ATOM     24  N   UNL     1      36.438  15.431 122.955 -0.36 -0.00    +0.000    124.516
ATOM     25  H   UNL     1      35.872  15.781 123.681 -0.02 -0.00    +0.000    124.516
ATOM     26  C   UNL     1      36.557  14.004 122.825 -0.42 -0.00    +0.000    124.516
ATOM     27  C   UNL     1      37.095  13.463 121.649 -0.39 -0.00    +0.000    124.516
ATOM     28  C   UNL     1      37.198  12.079 121.486 -0.47 -0.00    +0.000    124.516
ATOM     29  C   UNL     1      36.743  11.206 122.491 -0.57 -0.00    +0.000    124.516
ATOM     30  C   UNL     1      36.198  11.751 123.667 -0.62 -0.00    +0.000    124.516
ATOM     31  C   UNL     1      36.096  13.136 123.828 -0.53 -0.00    +0.000    124.516
ATOM     32  CM  UNL     1      36.648  12.606 122.658 +0.00 -0.00    +0.000    124.516
ATOM     33  C   UNL     1      36.842   9.732 122.335 -0.66 -0.00    +0.000    124.516
ATOM     34  N   UNL     1      37.105   8.879 123.454 -0.60 -0.00    +0.000    124.516
ATOM     35  O   UNL     1      37.088   7.535 123.304 -2.50 -0.00    +0.000    124.516
ATOM     36  O   UNL     1      36.705   9.218 121.192 -2.63 -0.00    +0.000    124.516
ATOM     37  H   UNL     1      37.300   9.272 124.335 -0.59 -0.00    +0.000    124.516
TER
ENDMDL
MODEL       69
USER    Run = 69
USER    Cluster Rank = 9
USER    Number of conformations in this cluster = 1
USER  
USER    RMSD from reference structure       = 127.085 A
USER  
USER    Estimated Free Energy of Binding    =  -12.18 kcal/mol  [=(1)+(2)+(3)-(4)]
USER    Estimated Inhibition Constant, Ki   =    1.18 nM (nanomolar)  [Temperature = 298.15 K]
USER    
USER    (1) Final Intermolecular Energy     =  -14.86 kcal/mol
USER        vdW + Hbond + desolv Energy     =  -14.86 kcal/mol
USER        Electrostatic Energy            =   +0.00 kcal/mol
USER    (2) Final Total Internal Energy     =   -1.54 kcal/mol
USER    (3) Torsional Free Energy           =   +2.68 kcal/mol
USER    (4) Unbound System's Energy  [=(2)] =   -1.54 kcal/mol
USER    
USER    
USER  
USER    DPF = ligand_dock.biased.dpf
USER    NEWDPF move	ligand.dum.pdbqt
USER    NEWDPF about	1.619000 0.086000 0.013000
USER    NEWDPF tran0	33.033928 17.428164 124.162238
USER    NEWDPF axisangle0	-0.800552 0.225621 0.555169 148.980223
USER    NEWDPF quaternion0	-0.771399 0.217405 0.534952 0.267405
USER    NEWDPF dihe0	153.46 -71.90 -165.35 174.94 157.31 -117.38 146.24 54.45 93.40 
USER  
USER                              x       y       z    vdW   Elec        q     RMS 
ATOM      1  C   UNL     1      35.378  17.876 124.366 -0.32 -0.00    +0.000    127.085
ATOM      2  C   UNL     1      34.704  18.703 125.423 -0.26 -0.00    +0.000    127.085
ATOM      3  C   UNL     1      35.298  19.884 125.893 -0.15 -0.00    +0.000    127.085
ATOM      4  C   UNL     1      34.675  20.641 126.890 -0.11 -0.00    +0.000    127.085
ATOM      5  C   UNL     1      33.457  20.218 127.441 -0.12 -0.00    +0.000    127.085
ATOM      6  C   UNL     1      32.829  20.966 128.448 -0.06 -0.00    +0.000    127.085
ATOM      7  C   UNL     1      31.627  20.521 129.022 -0.08 -0.00    +0.000    127.085
ATOM      8  C   UNL     1      31.033  19.340 128.548 -0.20 -0.00    +0.000    127.085
ATOM      9  C   UNL     1      31.647  18.593 127.538 -0.11 -0.00    +0.000    127.085
ATOM     10  C   UNL     1      32.861  19.020 126.982 -0.23 -0.00    +0.000    127.085
ATOM     11  C   UNL     1      33.488  18.271 125.975 -0.30 -0.00    +0.000    127.085
ATOM     12  CM  UNL     1      34.081  19.457 126.434 -0.01 -0.00    +0.000    127.085
ATOM     13  CM  UNL     1      32.242  19.776 127.997 +0.00 -0.00    +0.000    127.085
ATOM     14  C   UNL     1      30.953  21.337 130.096 -0.10 -0.00    +0.000    127.085
ATOM     15  N   UNL     1      29.749  22.015 129.569 -0.16 -0.00    +0.000    127.085
ATOM     16  H   UNL     1      29.805  22.930 130.018 +0.00 -0.00    +0.000    127.085
ATOM     17  C   UNL     1      29.800  22.308 128.121 -0.20 -0.00    +0.000    127.085
ATOM     18  C   UNL     1      29.347  23.726 127.764 -0.18 -0.00    +0.000    127.085
ATOM     19  C   UNL     1      28.436  21.534 130.070 -0.38 -0.00    +0.000    127.085
ATOM     20  C   UNL     1      27.551  20.857 129.014 -0.59 -0.00    +0.000    127.085
ATOM     21  O   UNL     1      34.409  17.055 123.724 -0.46 -0.00    +0.000    127.085
ATOM     22  O   UNL     1      33.550  14.917 123.607 -0.61 -0.00    +0.000    127.085
ATOM     23  C   UNL     1      34.561  15.672 123.586 -0.53 -0.00    +0.000    127.085
ATOM     24  N   UNL     1      35.881  15.125 123.468 -0.46 -0.00    +0.000    127.085
ATOM     25  H   UNL     1      36.645  15.738 123.576 -0.02 -0.00    +0.000    127.085
ATOM     26  C   UNL     1      36.165  13.741 123.202 -0.46 -0.00    +0.000    127.085
ATOM     27  C   UNL     1      36.446  13.337 121.889 -0.05 -0.00    +0.000    127.085
ATOM     28  C   UNL     1      36.700  11.994 121.597 -0.50 -0.00    +0.000    127.085
ATOM     29  C   UNL     1      36.654  11.022 122.613 -0.59 -0.00    +0.000    127.085
ATOM     30  C   UNL     1      36.365  11.429 123.928 -0.54 -0.00    +0.000    127.085
ATOM     31  C   UNL     1      36.113  12.773 124.218 -0.30 -0.00    +0.000    127.085
ATOM     32  CM  UNL     1      36.407  12.382 122.908 +0.00 -0.00    +0.000    127.085
ATOM     33  C   UNL     1      36.918   9.590 122.323 -0.64 -0.00    +0.000    127.085
ATOM     34  N   UNL     1      37.034   8.624 123.373 -0.67 -0.00    +0.000    127.085
ATOM     35  O   UNL     1      37.171   7.311 123.078 -2.22 -0.00    +0.000    127.085
ATOM     36  O   UNL     1      37.058   9.214 121.127 -2.74 -0.00    +0.000    127.085
ATOM     37  H   UNL     1      37.014   8.916 124.313 -0.52 -0.00    +0.000    127.085
TER
ENDMDL
MODEL       12
USER    Run = 12
USER    Cluster Rank = 10
USER    Number of conformations in this cluster = 2
USER  
USER    RMSD from reference structure       = 120.713 A
USER  
USER    Estimated Free Energy of Binding    =  -11.56 kcal/mol  [=(1)+(2)+(3)-(4)]
USER    Estimated Inhibition Constant, Ki   =    3.39 nM (nanomolar)  [Temperature = 298.15 K]
USER    
USER    (1) Final Intermolecular Energy     =  -14.24 kcal/mol
USER        vdW + Hbond + desolv Energy     =  -14.24 kcal/mol
USER        Electrostatic Energy            =   +0.00 kcal/mol
USER    (2) Final Total Internal Energy     =   -2.15 kcal/mol
USER    (3) Torsional Free Energy           =   +2.68 kcal/mol
USER    (4) Unbound System's Energy  [=(2)] =   -2.15 kcal/mol
USER    
USER    
USER  
USER    DPF = ligand_dock.biased.dpf
USER    NEWDPF move	ligand.dum.pdbqt
USER    NEWDPF about	1.619000 0.086000 0.013000
USER    NEWDPF tran0	38.643296 16.047132 121.313646
USER    NEWDPF axisangle0	-0.606339 0.203439 -0.768743 114.290586
USER    NEWDPF quaternion0	-0.509354 0.170898 -0.645782 0.542511
USER    NEWDPF dihe0	-53.47 -49.35 174.69 -30.53 -92.17 64.02 110.28 175.49 -180.00 
USER  
USER                              x       y       z    vdW   Elec        q     RMS 
ATOM      1  C   UNL     1      37.859  18.165 120.516 -0.07 -0.00    +0.000    120.713
ATOM      2  C   UNL     1      37.712  17.208 119.367 -0.08 -0.00    +0.000    120.713
ATOM      3  C   UNL     1      38.843  16.658 118.747 -0.09 -0.00    +0.000    120.713
ATOM      4  C   UNL     1      38.702  15.781 117.667 -0.14 -0.00    +0.000    120.713
ATOM      5  C   UNL     1      37.426  15.456 117.183 -0.16 -0.00    +0.000    120.713
ATOM      6  C   UNL     1      37.275  14.585 116.094 -0.25 -0.00    +0.000    120.713
ATOM      7  C   UNL     1      35.998  14.289 115.591 -0.26 -0.00    +0.000    120.713
ATOM      8  C   UNL     1      34.866  14.838 116.215 -0.24 -0.00    +0.000    120.713
ATOM      9  C   UNL     1      35.007  15.701 117.307 -0.16 -0.00    +0.000    120.713
ATOM     10  C   UNL     1      36.282  16.020 117.795 -0.15 -0.00    +0.000    120.713
ATOM     11  C   UNL     1      36.432  16.892 118.884 -0.12 -0.00    +0.000    120.713
ATOM     12  CM  UNL     1      37.567  16.336 118.274 +0.00 -0.00    +0.000    120.713
ATOM     13  CM  UNL     1      36.142  15.148 116.697 +0.00 -0.00    +0.000    120.713
ATOM     14  C   UNL     1      35.843  13.343 114.427 -0.21 -0.00    +0.000    120.713
ATOM     15  N   UNL     1      34.751  13.781 113.530 -0.23 -0.00    +0.000    120.713
ATOM     16  H   UNL     1      34.590  14.739 113.841 +0.00 -0.00    +0.000    120.713
ATOM     17  C   UNL     1      35.145  13.912 112.111 -0.20 -0.00    +0.000    120.713
ATOM     18  C   UNL     1      36.430  13.160 111.756 -0.29 -0.00    +0.000    120.713
ATOM     19  C   UNL     1      33.412  13.179 113.760 -0.35 -0.00    +0.000    120.713
ATOM     20  C   UNL     1      33.135  11.898 112.961 -0.52 -0.00    +0.000    120.713
ATOM     21  O   UNL     1      38.288  17.451 121.670 -0.11 -0.00    +0.000    120.713
ATOM     22  O   UNL     1      39.522  15.505 121.774 -0.32 -0.00    +0.000    120.713
ATOM     23  C   UNL     1      38.390  16.057 121.703 -0.23 -0.00    +0.000    120.713
ATOM     24  N   UNL     1      37.195  15.269 121.607 -0.25 -0.00    +0.000    120.713
ATOM     25  H   UNL     1      36.347  15.738 121.433 -0.01 -0.00    +0.000    120.713
ATOM     26  C   UNL     1      37.153  13.839 121.749 -0.37 -0.00    +0.000    120.713
ATOM     27  C   UNL     1      37.498  13.029 120.657 -0.43 -0.00    +0.000    120.713
ATOM     28  C   UNL     1      37.441  11.637 120.759 -0.42 -0.00    +0.000    120.713
ATOM     29  C   UNL     1      37.015  11.025 121.952 -0.48 -0.00    +0.000    120.713
ATOM     30  C   UNL     1      36.663  11.840 123.044 -0.61 -0.00    +0.000    120.713
ATOM     31  C   UNL     1      36.722  13.233 122.940 -0.52 -0.00    +0.000    120.713
ATOM     32  CM  UNL     1      37.081  12.433 121.851 +0.00 -0.00    +0.000    120.713
ATOM     33  C   UNL     1      36.945   9.547 122.080 -0.64 -0.00    +0.000    120.713
ATOM     34  N   UNL     1      37.092   8.899 123.348 -0.62 -0.00    +0.000    120.713
ATOM     35  O   UNL     1      36.922   7.561 123.451 -2.50 -0.00    +0.000    120.713
ATOM     36  O   UNL     1      36.765   8.843 121.049 -2.63 -0.00    +0.000    120.713
ATOM     37  H   UNL     1      37.319   9.428 124.145 -0.59 -0.00    +0.000    120.713
TER
ENDMDL


AVSFLD: # AVS field file
AVSFLD: #
AVSFLD: # Created by AutoDock
AVSFLD: #
AVSFLD: ndim=2           # number of dimensions in the field
AVSFLD: nspace=1         # number of physical coordinates
AVSFLD: veclen=7         # vector size
AVSFLD: dim1=37          # atoms
AVSFLD: dim2=10          # conformations
AVSFLD: data=Real       # data type (byte,integer,Real,double)
AVSFLD: field=uniform    # field coordinate layout
AVSFLD: label= x y z vdW Elec q RMS
AVSFLD: variable 1 file = ligand_dock.biased.dlg.pdb filetype = ascii offset = 5 stride = 12
AVSFLD: variable 2 file = ligand_dock.biased.dlg.pdb filetype = ascii offset = 6 stride = 12
AVSFLD: variable 3 file = ligand_dock.biased.dlg.pdb filetype = ascii offset = 7 stride = 12
AVSFLD: variable 4 file = ligand_dock.biased.dlg.pdb filetype = ascii offset = 8 stride = 12
AVSFLD: variable 5 file = ligand_dock.biased.dlg.pdb filetype = ascii offset = 9 stride = 12
AVSFLD: variable 6 file = ligand_dock.biased.dlg.pdb filetype = ascii offset = 10 stride = 12
AVSFLD: variable 7 file = ligand_dock.biased.dlg.pdb filetype = ascii offset = 11 stride = 12
AVSFLD: # end of file

>>> Closing the docking parameter file (DPF)...
This docking finished at:			6:25 48" p.m., 11/08/2024


________________________________________________________________________________

autodock4: Successful Completion on "ThinkStation-P620"

Real= 18m 38.91s,  CPU= 18m 38.60s,  System= 0.18s
________________________________________________________________________________

