REMARK  Name = 
REMARK  9 active torsions:
REMARK  status: ('A' for Active; 'I' for Inactive)
REMARK    1  A    between atoms: C_2  and  C_5
REMARK    2  A    between atoms: N_3  and  O_4
REMARK    3  A    between atoms: C_5  and  C_6
REMARK    4  A    between atoms: C_6  and  C_7
REMARK    5  A    between atoms: C_7  and  C_8
REMARK    6  A    between atoms: C_8  and  C_9
REMARK    7  A    between atoms: C_9  and  C_10
REMARK    8  A    between atoms: C_10  and  C_11
REMARK    9  A    between atoms: N_12  and  C_13
REMARK                            x       y       z     vdW  Elec       q    Type
REMARK                         _______ _______ _______ _____ _____    ______ ____
ROOT
ATOM      1  C   UNL     1       0.501  -0.850  -2.619  0.00  0.00    +0.000 C 
ENDROOT
BRANCH   1   2
ATOM      2  C   UNL     1       0.971   0.340  -1.768  0.00  0.00    +0.000 C 
BRANCH   2   3
ATOM      3  C   UNL     1       2.478   0.255  -1.487  0.00  0.00    +0.000 C 
BRANCH   3   4
ATOM      4  C   UNL     1       3.020   1.501  -0.764  0.00  0.00    +0.000 C 
BRANCH   4   5
ATOM      5  C   UNL     1       2.480   1.693   0.663  0.00  0.00    +0.000 C 
BRANCH   5   7
ATOM      6  O   UNL     1       4.025   0.464   2.010  0.00  0.00    +0.000 OA
ATOM      7  C   UNL     1       2.849   0.551   1.565  0.00  0.00    +0.000 C 
ATOM      8  N   UNL     1       1.883  -0.449   1.901  0.00  0.00    +0.000 N 
ATOM      9  H   UNL     1       0.964  -0.374   1.557  0.00  0.00    +0.000 HD
BRANCH   8  10
ATOM     10  O   UNL     1       2.222  -1.497   2.689  0.00  0.00    +0.000 OA
ATOM     11  H   UNL     1       3.155  -1.423   2.942  0.00  0.00    +0.000 HD
ENDBRANCH   8  10
ENDBRANCH   5   7
ENDBRANCH   4   5
ENDBRANCH   3   4
ENDBRANCH   2   3
ENDBRANCH   1   2
BRANCH   1  12
ATOM     12  C   UNL     1      -1.008  -0.805  -2.895  0.00  0.00    +0.000 C 
BRANCH  12  13
ATOM     13  C   UNL     1      -1.801  -1.081  -1.650  0.00  0.00    +0.000 C 
ATOM     14  N   UNL     1      -2.263   0.008  -0.835  0.00  0.00    +0.000 N 
ATOM     15  O   UNL     1      -2.048  -2.274  -1.326  0.00  0.00    +0.000 OA
ATOM     16  H   UNL     1      -2.334   0.897  -1.250  0.00  0.00    +0.000 HD
BRANCH  14  17
ATOM     17  C   UNL     1      -2.628  -0.121   0.550  0.00  0.00    +0.000 A 
ATOM     18  C   UNL     1      -3.550   0.775   1.109  0.00  0.00    +0.000 A 
ATOM     19  C   UNL     1      -3.888   0.681   2.460  0.00  0.00    +0.000 A 
ATOM     20  C   UNL     1      -3.289  -0.302   3.248  0.00  0.00    +0.000 A 
ATOM     21  N   UNL     1      -2.378  -1.150   2.702  0.00  0.00    +0.000 NA
ATOM     22  C   UNL     1      -2.034  -1.082   1.388  0.00  0.00    +0.000 A 
ENDBRANCH  14  17
ENDBRANCH  12  13
ENDBRANCH   1  12
TORSDOF 9
