          AutoDock 4.2 Release 4.2.6   
         (C) 1989-2012 The Scripps Research Institute
        AutoDock comes with ABSOLUTELY NO WARRANTY.
        AutoDock is free software, and you are welcome
        to redistribute it under certain conditions;
        for details type 'autodock4 -C'

                     main.cc  $Revision: 1.213 $

                   Compiled on Feb 20 2022 at 09:48:33


This file was created at:			10:03 16" a.m., 11/08/2024
                   on host:		"ThinkStation-P620"
Current Working Directory = "/home/antonio/Documenti/buccheri/IDROSSAMICO HDAC/HDAC 2/P/Ligand_8"

      ________________________________________________________________

                   SETTING UP DEFAULT PARAMETER LIBRARY
      ________________________________________________________________


Random number generator was seeded with values 328179, 1731056596.
Docking parameter file (DPF) used for this docking:		ligand_dock.biased.dpf
DPF> autodock_parameter_version 4.2       # used by autodock to validate parameter set

	Autodock parameter version 4.2.
DPF> outlev 1                             # diagnostic output level

Output Level = 1  ADT-COMPATIBLE OUTPUT DURING DOCKING.
DPF> intelec                              # calculate internal electrostatics

Electrostatic energies will be calculated for all non-bonds between moving atoms.
DPF> seed pid time                        # seeds for random generator

Random number generator was seeded with values 328179, 1731056596.
DPF> ligand_types A C NA OA N HD          # atoms types in ligand

DPF> fld receptor.maps.fld                # grid_data_file

Opening Grid Map Dimensions file:		receptor.maps.fld
Grid Point Spacing =				0.375 Angstroms

Even Number of User-specified Grid Points =	70 x-points
						70 y-points
						70 z-points

Coordinates of Central Grid Point of Maps =	(24.757, -16.735, 0.794)
Macromolecule file used to create Grid Maps =	receptor.pdbqt
Grid Parameter file used to create Grid Maps =	receptor.gpf
Minimum coordinates in grid = (11.632, -29.860, -12.331)
Maximum coordinates in grid = (37.882, -3.610, 13.919)

DPF> map receptor.A.map                   # atom-specific affinity map

DPF> map receptor.C.map                   # atom-specific affinity map

DPF> map receptor.NA.biased.map

DPF> map receptor.OA.biased.map

DPF> map receptor.N.map                   # atom-specific affinity map

DPF> map receptor.HD.biased.map

DPF> elecmap receptor.e.map               # electrostatics map

DPF> desolvmap receptor.d.map             # desolvation map

DPF> move ligand.pdbqt                    # small molecule

1,4-interactions will be _ignored_ in the non-bonded internal energy calculation.

Ligand PDBQT file = "ligand.pdbqt"

INPUT LIGAND PDBQT FILE:
________________________

INPUT-LIGAND-PDBQT: REMARK  Name = 
INPUT-LIGAND-PDBQT: REMARK  9 active torsions:
INPUT-LIGAND-PDBQT: REMARK  status: ('A' for Active; 'I' for Inactive)
INPUT-LIGAND-PDBQT: REMARK    1  A    between atoms: C_2  and  C_5
INPUT-LIGAND-PDBQT: REMARK    2  A    between atoms: N_3  and  O_4
INPUT-LIGAND-PDBQT: REMARK    3  A    between atoms: C_5  and  C_6
INPUT-LIGAND-PDBQT: REMARK    4  A    between atoms: C_6  and  C_7
INPUT-LIGAND-PDBQT: REMARK    5  A    between atoms: C_7  and  C_8
INPUT-LIGAND-PDBQT: REMARK    6  A    between atoms: C_8  and  C_9
INPUT-LIGAND-PDBQT: REMARK    7  A    between atoms: C_9  and  C_10
INPUT-LIGAND-PDBQT: REMARK    8  A    between atoms: C_10  and  C_11
INPUT-LIGAND-PDBQT: REMARK    9  A    between atoms: N_12  and  C_13
INPUT-LIGAND-PDBQT: REMARK                            x       y       z     vdW  Elec       q    Type
INPUT-LIGAND-PDBQT: REMARK                         _______ _______ _______ _____ _____    ______ ____
INPUT-LIGAND-PDBQT: ROOT
INPUT-LIGAND-PDBQT: ATOM      1  C   UNL     1       0.501  -0.850  -2.619  0.00  0.00    +0.000 C 
INPUT-LIGAND-PDBQT: ENDROOT
INPUT-LIGAND-PDBQT: BRANCH   1   2
INPUT-LIGAND-PDBQT: ATOM      2  C   UNL     1       0.971   0.340  -1.768  0.00  0.00    +0.000 C 
INPUT-LIGAND-PDBQT: BRANCH   2   3
INPUT-LIGAND-PDBQT: ATOM      3  C   UNL     1       2.478   0.255  -1.487  0.00  0.00    +0.000 C 
INPUT-LIGAND-PDBQT: BRANCH   3   4
INPUT-LIGAND-PDBQT: ATOM      4  C   UNL     1       3.020   1.501  -0.764  0.00  0.00    +0.000 C 
INPUT-LIGAND-PDBQT: BRANCH   4   5
INPUT-LIGAND-PDBQT: ATOM      5  C   UNL     1       2.480   1.693   0.663  0.00  0.00    +0.000 C 
INPUT-LIGAND-PDBQT: BRANCH   5   7
INPUT-LIGAND-PDBQT: ATOM      6  O   UNL     1       4.025   0.464   2.010  0.00  0.00    +0.000 OA
INPUT-LIGAND-PDBQT: ATOM      7  C   UNL     1       2.849   0.551   1.565  0.00  0.00    +0.000 C 
INPUT-LIGAND-PDBQT: ATOM      8  N   UNL     1       1.883  -0.449   1.901  0.00  0.00    +0.000 N 
INPUT-LIGAND-PDBQT: ATOM      9  H   UNL     1       0.964  -0.374   1.557  0.00  0.00    +0.000 HD
INPUT-LIGAND-PDBQT: BRANCH   8  10
INPUT-LIGAND-PDBQT: ATOM     10  O   UNL     1       2.222  -1.497   2.689  0.00  0.00    +0.000 OA
INPUT-LIGAND-PDBQT: ATOM     11  H   UNL     1       3.155  -1.423   2.942  0.00  0.00    +0.000 HD
INPUT-LIGAND-PDBQT: ENDBRANCH   8  10
INPUT-LIGAND-PDBQT: ENDBRANCH   5   7
INPUT-LIGAND-PDBQT: ENDBRANCH   4   5
INPUT-LIGAND-PDBQT: ENDBRANCH   3   4
INPUT-LIGAND-PDBQT: ENDBRANCH   2   3
INPUT-LIGAND-PDBQT: ENDBRANCH   1   2
INPUT-LIGAND-PDBQT: BRANCH   1  12
INPUT-LIGAND-PDBQT: ATOM     12  C   UNL     1      -1.008  -0.805  -2.895  0.00  0.00    +0.000 C 
INPUT-LIGAND-PDBQT: BRANCH  12  13
INPUT-LIGAND-PDBQT: ATOM     13  C   UNL     1      -1.801  -1.081  -1.650  0.00  0.00    +0.000 C 
INPUT-LIGAND-PDBQT: ATOM     14  N   UNL     1      -2.263   0.008  -0.835  0.00  0.00    +0.000 N 
INPUT-LIGAND-PDBQT: ATOM     15  O   UNL     1      -2.048  -2.274  -1.326  0.00  0.00    +0.000 OA
INPUT-LIGAND-PDBQT: ATOM     16  H   UNL     1      -2.334   0.897  -1.250  0.00  0.00    +0.000 HD
INPUT-LIGAND-PDBQT: BRANCH  14  17
INPUT-LIGAND-PDBQT: ATOM     17  C   UNL     1      -2.628  -0.121   0.550  0.00  0.00    +0.000 A 
INPUT-LIGAND-PDBQT: ATOM     18  C   UNL     1      -3.550   0.775   1.109  0.00  0.00    +0.000 A 
INPUT-LIGAND-PDBQT: ATOM     19  C   UNL     1      -3.888   0.681   2.460  0.00  0.00    +0.000 A 
INPUT-LIGAND-PDBQT: ATOM     20  C   UNL     1      -3.289  -0.302   3.248  0.00  0.00    +0.000 A 
INPUT-LIGAND-PDBQT: ATOM     21  N   UNL     1      -2.378  -1.150   2.702  0.00  0.00    +0.000 NA
INPUT-LIGAND-PDBQT: ATOM     22  C   UNL     1      -2.034  -1.082   1.388  0.00  0.00    +0.000 A 
INPUT-LIGAND-PDBQT: ENDBRANCH  14  17
INPUT-LIGAND-PDBQT: ENDBRANCH  12  13
INPUT-LIGAND-PDBQT: ENDBRANCH   1  12
INPUT-LIGAND-PDBQT: TORSDOF 9
________________________________________________________________________________

Total charge on ligand                               =	+0.000 e
REMARK  Name = 
REMARK  9 active torsions:
REMARK  status: ('A' for Active; 'I' for Inactive)
REMARK    1  A    between atoms: C_2  and  C_5
REMARK    2  A    between atoms: N_3  and  O_4
REMARK    3  A    between atoms: C_5  and  C_6
REMARK    4  A    between atoms: C_6  and  C_7
REMARK    5  A    between atoms: C_7  and  C_8
REMARK    6  A    between atoms: C_8  and  C_9
REMARK    7  A    between atoms: C_9  and  C_10
REMARK    8  A    between atoms: C_10  and  C_11
REMARK    9  A    between atoms: N_12  and  C_13
REMARK                            x       y       z     vdW  Elec       q    Type
REMARK                         _______ _______ _______ _____ _____    ______ ____


Number of Rotatable Bonds in Small Molecule =	9 torsions
Number of atoms in ligand:  22

Number of non-hydrogen atoms in ligand:  19

Number of vibrational degrees of freedom of ligand:  60


Number of torsional degrees of freedom = 9
Estimated loss of torsional free energy upon binding = +2.6847 kcal/mol


DPF> about -0.121 -0.193 0.463            # small molecule center

Small molecule center of rotation =	(-0.121, -0.193, +0.463)

DPF> tran0 random                         # initial coordinates/A or random

Initial translation =			(34.152, -22.284, -5.871) Angstroms
DPF> quaternion0 random                   # initial orientation

Each run will begin with a new, random initial orientation.
Initial quaternion,  (x,y,z,w) =	( 0.471, -0.758, -0.203, 0.404 ),
DPF> dihe0 random                         # initial dihedrals (relative) or random

DPF> torsdof 9                            # torsional degrees of freedom

Number of torsional degrees of freedom = 9
Free energy coefficient for torsional degrees of freedom = 0.2983, the factory default value.

Estimated loss of torsional free energy upon binding = +2.6847 kcal/mol

DPF> rmstol 2.0                           # cluster_tolerance/A

Maximum RMS tolerance for conformational cluster analysis = 2.00 Angstroms
DPF> extnrg 1000.0                        # external grid energy

External grid energy (beyond grid map walls) = 1000.00

DPF> e0max 0.0 10000                      # max initial energy; max number of retries

Using user-specified maximum number of retries for simanneal initialization, 10000 retries.
If the simanneal initial energy is greater than e0max, 0.000,
then a new, random initial state will be created.

DPF> ga_pop_size 150                      # number of individuals in population

A population of 150 individuals will be used
DPF> ga_num_evals 2500000                 # maximum number of energy evaluations

There will be at most 2500000 function evaluations used.
DPF> ga_num_generations 27000             # maximum number of generations

The GA will run for at most 27000 generations.
DPF> ga_elitism 1                         # number of top individuals to survive to next generation

The 1 best will be preserved each GA generation.
DPF> ga_mutation_rate 0.02                # rate of gene mutation

The mutation rate is 0.020000.
DPF> ga_crossover_rate 0.8                # rate of crossover

The crossover rate is 0.800000.
DPF> ga_window_size 10                    # 

The GA's selection window is 10 generations.
DPF> ga_cauchy_alpha 0.0                  # Alpha parameter of Cauchy distribution

The alpha parameter (for the Cauchy distribution) is being set to 0.000000.
DPF> ga_cauchy_beta 1.0                   # Beta parameter Cauchy distribution

The beta parameter (for the Cauchy distribution) is being set to 1.000000.
DPF> set_ga                               # set the above parameters for GA or LGA

DPF> sw_max_its 300                       # iterations of Solis & Wets local search

Solis & Wets algorithms will perform at most 300 iterations.
DPF> sw_max_succ 4                        # consecutive successes before changing rho

Solis & Wets algorithms expand rho every 4 in a row successes.
DPF> sw_max_fail 4                        # consecutive failures before changing rho

Solis & Wets algorithms contract rho every 4 in a row failures.
DPF> sw_rho 1.0                           # size of local search space to sample

rho is set to 1.000000.
DPF> sw_lb_rho 0.01                       # lower bound on rho

rho will never get smaller than 0.010000.
DPF> ls_search_freq 0.06                  # probability of performing local search on individual

Local search will be performed with frequency 0.060000.
DPF> set_psw1                             # set the above pseudo-Solis & Wets parameters

Creating a new Local Search object using the pseudo-Solis-Wets algorithm (pSW1) with the current settings.

DPF> unbound_model bound                  # state of unbound ligand

DPF> ga_run 100

centering ligand on specified point: -0.121 -0.193 0.463
Furthest true ligand atom from "about" center is 4.474 Angstroms (maxrad).
Number of requested GA dockings = 100 runs
Unbound model to be used is 'same as bound' [AutoDock 4.2 default].

	BEGINNING GENETIC ALGORITHM DOCKING 1 of 100
Run: 1 Seed: 508193572 1997114283 [ Run 1 of 100 GA/GALS ]
Beginning LAMARCKIAN GENETIC ALGORITHM (LGA), with a maximum of 2500000 energy evaluations.

Final-Value: -14.271


	FINAL GENETIC ALGORITHM DOCKED STATE
	_______________________________________________


Detailed state:  trans 28.420 -17.108 -2.585 quatxyzw -0.751238 0.049750 -0.653543 0.077773 center -0.121 -0.193 0.463 ntor 9 -13.6404 -144.8630 -89.8183 149.7381 127.4394 -171.7867 95.5847 -147.7811 -35.1558
State:	 28.420 -17.108  -2.585  -0.754  0.050 -0.656 171.079    -13.64 -144.86  -89.82  149.74  127.44 -171.79   95.58 -147.78  -35.16

DOCKED: MODEL        1
DOCKED: USER    Run = 1
DOCKED: USER    DPF = ligand_dock.biased.dpf
DOCKED: USER  
DOCKED: USER    Estimated Free Energy of Binding    =  -10.31 kcal/mol  [=(1)+(2)+(3)-(4)]
DOCKED: USER    Estimated Inhibition Constant, Ki   =   27.80 nM (nanomolar)  [Temperature = 298.15 K]
DOCKED: USER    
DOCKED: USER    (1) Final Intermolecular Energy     =  -12.99 kcal/mol
DOCKED: USER        vdW + Hbond + desolv Energy     =  -12.99 kcal/mol
DOCKED: USER        Electrostatic Energy            =   +0.00 kcal/mol
DOCKED: USER    (2) Final Total Internal Energy     =   -1.28 kcal/mol
DOCKED: USER    (3) Torsional Free Energy           =   +2.68 kcal/mol
DOCKED: USER    (4) Unbound System's Energy  [=(2)] =   -1.28 kcal/mol
DOCKED: USER    
DOCKED: USER    
DOCKED: USER    NEWDPF move ligand.pdbqt
DOCKED: USER    NEWDPF about -0.121000 -0.193000 0.463000
DOCKED: USER    NEWDPF tran0 28.420499 -17.107955 -2.584710
DOCKED: USER    NEWDPF quaternion0 -0.751238 0.049750 -0.653543 0.077773
DOCKED: USER    NEWDPF axisangle0 -0.753520 0.049901 -0.655529 171.078871
DOCKED: USER    NEWDPF quat0 -0.753520 0.049901 -0.655529 171.078871
DOCKED: USER    NEWDPF dihe0 -13.64 -144.86 -89.82 149.74 127.44 -171.79 95.58 -147.78 -35.16 
DOCKED: USER  keepresnum = 1 
DOCKED: USER  
DOCKED: REMARK  Name = 
DOCKED: REMARK  9 active torsions:
DOCKED: REMARK  status: ('A' for Active; 'I' for Inactive)
DOCKED: REMARK    1  A    between atoms: C_2  and  C_5
DOCKED: REMARK    2  A    between atoms: N_3  and  O_4
DOCKED: REMARK    3  A    between atoms: C_5  and  C_6
DOCKED: REMARK    4  A    between atoms: C_6  and  C_7
DOCKED: REMARK    5  A    between atoms: C_7  and  C_8
DOCKED: REMARK    6  A    between atoms: C_8  and  C_9
DOCKED: REMARK    7  A    between atoms: C_9  and  C_10
DOCKED: REMARK    8  A    between atoms: C_10  and  C_11
DOCKED: REMARK    9  A    between atoms: N_12  and  C_13
DOCKED: REMARK                            x       y       z     vdW  Elec       q    Type
DOCKED: REMARK                         _______ _______ _______ _____ _____    ______ ____
DOCKED: USER                              x       y       z     vdW  Elec       q    Type
DOCKED: USER                           _______ _______ _______ _____ _____    ______ ____
DOCKED: ROOT
DOCKED: ATOM      1  C   UNL     1      25.622 -15.885  -1.591 -0.52 -0.00    +0.000 C 
DOCKED: ENDROOT
DOCKED: BRANCH   1   2
DOCKED: ATOM      2  C   UNL     1      26.307 -17.197  -1.178 -0.55 -0.00    +0.000 C 
DOCKED: BRANCH   2   3
DOCKED: ATOM      3  C   UNL     1      25.276 -18.229  -0.699 -0.70 -0.00    +0.000 C 
DOCKED: BRANCH   3   4
DOCKED: ATOM      4  C   UNL     1      23.829 -17.717  -0.802 -0.77 -0.00    +0.000 C 
DOCKED: BRANCH   4   5
DOCKED: ATOM      5  C   UNL     1      22.798 -18.569  -0.043 -0.77 -0.00    +0.000 C 
DOCKED: BRANCH   5   7
DOCKED: ATOM      6  O   UNL     1      20.771 -17.491  -0.708 -2.08 +0.00    +0.000 OA
DOCKED: ATOM      7  C   UNL     1      21.452 -18.552  -0.707 -0.86 -0.00    +0.000 C 
DOCKED: ATOM      8  N   UNL     1      20.928 -19.736  -1.316 -0.77 -0.00    +0.000 N 
DOCKED: ATOM      9  H   UNL     1      21.465 -20.561  -1.319 -0.17 -0.00    +0.000 HD
DOCKED: BRANCH   8  10
DOCKED: ATOM     10  O   UNL     1      19.701 -19.732  -1.889 -1.77 -0.00    +0.000 OA
DOCKED: ATOM     11  H   UNL     1      19.222 -18.933  -1.620 -0.49 -0.00    +0.000 HD
DOCKED: ENDBRANCH   8  10
DOCKED: ENDBRANCH   5   7
DOCKED: ENDBRANCH   4   5
DOCKED: ENDBRANCH   3   4
DOCKED: ENDBRANCH   2   3
DOCKED: ENDBRANCH   1   2
DOCKED: BRANCH   1  12
DOCKED: ATOM     12  C   UNL     1      25.132 -15.920  -3.045 -0.35 -0.00    +0.000 C 
DOCKED: BRANCH  12  13
DOCKED: ATOM     13  C   UNL     1      26.015 -15.098  -3.940 -0.57 -0.00    +0.000 C 
DOCKED: ATOM     14  N   UNL     1      26.283 -13.723  -3.621 -0.34 -0.00    +0.000 N 
DOCKED: ATOM     15  O   UNL     1      26.509 -15.624  -4.974 -1.04 +0.00    +0.000 OA
DOCKED: ATOM     16  H   UNL     1      26.157 -13.433  -2.690 -0.01 -0.00    +0.000 HD
DOCKED: BRANCH  14  17
DOCKED: ATOM     17  C   UNL     1      26.723 -12.745  -4.579 -0.26 -0.00    +0.000 A 
DOCKED: ATOM     18  C   UNL     1      25.906 -11.643  -4.868 -0.29 -0.00    +0.000 A 
DOCKED: ATOM     19  C   UNL     1      26.307 -10.704  -5.820 -0.20 -0.00    +0.000 A 
DOCKED: ATOM     20  C   UNL     1      27.519 -10.882  -6.488 -0.12 -0.00    +0.000 A 
DOCKED: ATOM     21  N   UNL     1      28.292 -11.966  -6.218 -0.15 -0.00    +0.000 NA
DOCKED: ATOM     22  C   UNL     1      27.926 -12.894  -5.293 -0.19 -0.00    +0.000 A 
DOCKED: ENDBRANCH  14  17
DOCKED: ENDBRANCH  12  13
DOCKED: ENDBRANCH   1  12
DOCKED: TORSDOF 9
DOCKED: TER
DOCKED: ENDMDL
________________________________________________________________________________


	BEGINNING GENETIC ALGORITHM DOCKING 2 of 100
Run: 2 Seed: 1842302857 619778659 [ Run 2 of 100 GA/GALS ]
Beginning LAMARCKIAN GENETIC ALGORITHM (LGA), with a maximum of 2500000 energy evaluations.

Final-Value: -13.629


	FINAL GENETIC ALGORITHM DOCKED STATE
	_______________________________________________


Detailed state:  trans 24.246 -16.152 -0.474 quatxyzw 0.398863 0.101168 -0.885397 0.216206 center -0.121 -0.193 0.463 ntor 9 -4.3612 -179.7274 142.0622 48.6708 139.2772 40.7102 -132.3007 -119.3435 -23.9040
State:	 24.246 -16.152  -0.474   0.409  0.104 -0.907 155.027     -4.36 -179.73  142.06   48.67  139.28   40.71 -132.30 -119.34  -23.90

DOCKED: MODEL        2
DOCKED: USER    Run = 2
DOCKED: USER    DPF = ligand_dock.biased.dpf
DOCKED: USER  
DOCKED: USER    Estimated Free Energy of Binding    =   -9.65 kcal/mol  [=(1)+(2)+(3)-(4)]
DOCKED: USER    Estimated Inhibition Constant, Ki   =   84.94 nM (nanomolar)  [Temperature = 298.15 K]
DOCKED: USER    
DOCKED: USER    (1) Final Intermolecular Energy     =  -12.33 kcal/mol
DOCKED: USER        vdW + Hbond + desolv Energy     =  -12.33 kcal/mol
DOCKED: USER        Electrostatic Energy            =   +0.00 kcal/mol
DOCKED: USER    (2) Final Total Internal Energy     =   -1.30 kcal/mol
DOCKED: USER    (3) Torsional Free Energy           =   +2.68 kcal/mol
DOCKED: USER    (4) Unbound System's Energy  [=(2)] =   -1.30 kcal/mol
DOCKED: USER    
DOCKED: USER    
DOCKED: USER    NEWDPF move ligand.pdbqt
DOCKED: USER    NEWDPF about -0.121000 -0.193000 0.463000
DOCKED: USER    NEWDPF tran0 24.246224 -16.151700 -0.473698
DOCKED: USER    NEWDPF quaternion0 0.398863 0.101168 -0.885397 0.216206
DOCKED: USER    NEWDPF axisangle0 0.408525 0.103619 -0.906846 155.027441
DOCKED: USER    NEWDPF quat0 0.408525 0.103619 -0.906846 155.027441
DOCKED: USER    NEWDPF dihe0 -4.36 -179.73 142.06 48.67 139.28 40.71 -132.30 -119.34 -23.90 
DOCKED: USER  keepresnum = 1 
DOCKED: USER  
DOCKED: REMARK  Name = 
DOCKED: REMARK  9 active torsions:
DOCKED: REMARK  status: ('A' for Active; 'I' for Inactive)
DOCKED: REMARK    1  A    between atoms: C_2  and  C_5
DOCKED: REMARK    2  A    between atoms: N_3  and  O_4
DOCKED: REMARK    3  A    between atoms: C_5  and  C_6
DOCKED: REMARK    4  A    between atoms: C_6  and  C_7
DOCKED: REMARK    5  A    between atoms: C_7  and  C_8
DOCKED: REMARK    6  A    between atoms: C_8  and  C_9
DOCKED: REMARK    7  A    between atoms: C_9  and  C_10
DOCKED: REMARK    8  A    between atoms: C_10  and  C_11
DOCKED: REMARK    9  A    between atoms: N_12  and  C_13
DOCKED: REMARK                            x       y       z     vdW  Elec       q    Type
DOCKED: REMARK                         _______ _______ _______ _____ _____    ______ ____
DOCKED: USER                              x       y       z     vdW  Elec       q    Type
DOCKED: USER                           _______ _______ _______ _____ _____    ______ ____
DOCKED: ROOT
DOCKED: ATOM      1  C   UNL     1      26.390 -15.261  -2.693 -0.44 -0.00    +0.000 C 
DOCKED: ENDROOT
DOCKED: BRANCH   1   2
DOCKED: ATOM      2  C   UNL     1      25.116 -16.103  -2.860 -0.39 -0.00    +0.000 C 
DOCKED: BRANCH   2   3
DOCKED: ATOM      3  C   UNL     1      24.694 -16.733  -1.525 -0.64 -0.00    +0.000 C 
DOCKED: BRANCH   3   4
DOCKED: ATOM      4  C   UNL     1      24.067 -18.129  -1.698 -0.68 -0.00    +0.000 C 
DOCKED: BRANCH   4   5
DOCKED: ATOM      5  C   UNL     1      23.106 -18.538  -0.569 -0.83 -0.00    +0.000 C 
DOCKED: BRANCH   5   7
DOCKED: ATOM      6  O   UNL     1      20.894 -17.645  -0.712 -2.14 -0.00    +0.000 OA
DOCKED: ATOM      7  C   UNL     1      21.678 -18.579  -1.030 -0.81 -0.00    +0.000 C 
DOCKED: ATOM      8  N   UNL     1      21.198 -19.681  -1.805 -0.58 -0.00    +0.000 N 
DOCKED: ATOM      9  H   UNL     1      21.815 -20.406  -2.057 -0.48 -0.00    +0.000 HD
DOCKED: BRANCH   8  10
DOCKED: ATOM     10  O   UNL     1      19.902 -19.736  -2.196 -1.90 -0.00    +0.000 OA
DOCKED: ATOM     11  H   UNL     1      19.417 -18.989  -1.812 -0.39 -0.00    +0.000 HD
DOCKED: ENDBRANCH   8  10
DOCKED: ENDBRANCH   5   7
DOCKED: ENDBRANCH   4   5
DOCKED: ENDBRANCH   3   4
DOCKED: ENDBRANCH   2   3
DOCKED: ENDBRANCH   1   2
DOCKED: BRANCH   1  12
DOCKED: ATOM     12  C   UNL     1      27.472 -15.998  -1.892 -0.34 -0.00    +0.000 C 
DOCKED: BRANCH  12  13
DOCKED: ATOM     13  C   UNL     1      27.408 -15.647  -0.433 -0.34 -0.00    +0.000 C 
DOCKED: ATOM     14  N   UNL     1      26.848 -14.390  -0.020 -0.29 -0.00    +0.000 N 
DOCKED: ATOM     15  O   UNL     1      27.856 -16.460   0.419 -0.33 -0.00    +0.000 OA
DOCKED: ATOM     16  H   UNL     1      26.242 -13.928  -0.641 -0.01 -0.00    +0.000 HD
DOCKED: BRANCH  14  17
DOCKED: ATOM     17  C   UNL     1      27.120 -13.765   1.247 -0.26 -0.00    +0.000 A 
DOCKED: ATOM     18  C   UNL     1      27.773 -14.493   2.252 -0.23 -0.00    +0.000 A 
DOCKED: ATOM     19  C   UNL     1      28.013 -13.909   3.496 -0.39 -0.00    +0.000 A 
DOCKED: ATOM     20  C   UNL     1      27.584 -12.603   3.733 -0.29 -0.00    +0.000 A 
DOCKED: ATOM     21  N   UNL     1      26.930 -11.915   2.761 -0.29 +0.00    +0.000 NA
DOCKED: ATOM     22  C   UNL     1      26.687 -12.459   1.538 -0.30 -0.00    +0.000 A 
DOCKED: ENDBRANCH  14  17
DOCKED: ENDBRANCH  12  13
DOCKED: ENDBRANCH   1  12
DOCKED: TORSDOF 9
DOCKED: TER
DOCKED: ENDMDL
________________________________________________________________________________


	BEGINNING GENETIC ALGORITHM DOCKING 3 of 100
Run: 3 Seed: 528507070 883785469 [ Run 3 of 100 GA/GALS ]
Beginning LAMARCKIAN GENETIC ALGORITHM (LGA), with a maximum of 2500000 energy evaluations.

Final-Value: -13.851


	FINAL GENETIC ALGORITHM DOCKED STATE
	_______________________________________________


Detailed state:  trans 26.792 -17.367 -3.360 quatxyzw -0.709557 0.680372 -0.158650 0.091941 center -0.121 -0.193 0.463 ntor 9 3.7694 178.4660 179.3161 94.0409 46.3240 12.3558 136.7209 -146.6469 19.9000
State:	 26.792 -17.367  -3.360  -0.713  0.683 -0.159 169.449      3.77  178.47  179.32   94.04   46.32   12.36  136.72 -146.65   19.90

DOCKED: MODEL        3
DOCKED: USER    Run = 3
DOCKED: USER    DPF = ligand_dock.biased.dpf
DOCKED: USER  
DOCKED: USER    Estimated Free Energy of Binding    =   -9.80 kcal/mol  [=(1)+(2)+(3)-(4)]
DOCKED: USER    Estimated Inhibition Constant, Ki   =   65.69 nM (nanomolar)  [Temperature = 298.15 K]
DOCKED: USER    
DOCKED: USER    (1) Final Intermolecular Energy     =  -12.48 kcal/mol
DOCKED: USER        vdW + Hbond + desolv Energy     =  -12.48 kcal/mol
DOCKED: USER        Electrostatic Energy            =   +0.00 kcal/mol
DOCKED: USER    (2) Final Total Internal Energy     =   -1.37 kcal/mol
DOCKED: USER    (3) Torsional Free Energy           =   +2.68 kcal/mol
DOCKED: USER    (4) Unbound System's Energy  [=(2)] =   -1.37 kcal/mol
DOCKED: USER    
DOCKED: USER    
DOCKED: USER    NEWDPF move ligand.pdbqt
DOCKED: USER    NEWDPF about -0.121000 -0.193000 0.463000
DOCKED: USER    NEWDPF tran0 26.792147 -17.366787 -3.360438
DOCKED: USER    NEWDPF quaternion0 -0.709557 0.680372 -0.158650 0.091941
DOCKED: USER    NEWDPF axisangle0 -0.712575 0.683266 -0.159325 169.449427
DOCKED: USER    NEWDPF quat0 -0.712575 0.683266 -0.159325 169.449427
DOCKED: USER    NEWDPF dihe0 3.77 178.47 179.32 94.04 46.32 12.36 136.72 -146.65 19.90 
DOCKED: USER  keepresnum = 1 
DOCKED: USER  
DOCKED: REMARK  Name = 
DOCKED: REMARK  9 active torsions:
DOCKED: REMARK  status: ('A' for Active; 'I' for Inactive)
DOCKED: REMARK    1  A    between atoms: C_2  and  C_5
DOCKED: REMARK    2  A    between atoms: N_3  and  O_4
DOCKED: REMARK    3  A    between atoms: C_5  and  C_6
DOCKED: REMARK    4  A    between atoms: C_6  and  C_7
DOCKED: REMARK    5  A    between atoms: C_7  and  C_8
DOCKED: REMARK    6  A    between atoms: C_8  and  C_9
DOCKED: REMARK    7  A    between atoms: C_9  and  C_10
DOCKED: REMARK    8  A    between atoms: C_10  and  C_11
DOCKED: REMARK    9  A    between atoms: N_12  and  C_13
DOCKED: REMARK                            x       y       z     vdW  Elec       q    Type
DOCKED: REMARK                         _______ _______ _______ _____ _____    ______ ____
DOCKED: USER                              x       y       z     vdW  Elec       q    Type
DOCKED: USER                           _______ _______ _______ _____ _____    ______ ____
DOCKED: ROOT
DOCKED: ATOM      1  C   UNL     1      27.152 -16.844  -0.212 -0.45 -0.00    +0.000 C 
DOCKED: ENDROOT
DOCKED: BRANCH   1   2
DOCKED: ATOM      2  C   UNL     1      26.065 -17.647  -0.943 -0.60 -0.00    +0.000 C 
DOCKED: BRANCH   2   3
DOCKED: ATOM      3  C   UNL     1      24.695 -16.966  -0.811 -0.64 -0.00    +0.000 C 
DOCKED: BRANCH   3   4
DOCKED: ATOM      4  C   UNL     1      23.550 -17.813  -1.395 -0.73 -0.00    +0.000 C 
DOCKED: BRANCH   4   5
DOCKED: ATOM      5  C   UNL     1      22.559 -18.349  -0.348 -0.84 -0.00    +0.000 C 
DOCKED: BRANCH   5   7
DOCKED: ATOM      6  O   UNL     1      20.249 -17.855  -0.711 -2.19 +0.00    +0.000 OA
DOCKED: ATOM      7  C   UNL     1      21.211 -18.636  -0.943 -0.82 -0.00    +0.000 C 
DOCKED: ATOM      8  N   UNL     1      21.007 -19.801  -1.748 -0.59 -0.00    +0.000 N 
DOCKED: ATOM      9  H   UNL     1      21.762 -20.405  -1.932 -0.46 -0.00    +0.000 HD
DOCKED: BRANCH   8  10
DOCKED: ATOM     10  O   UNL     1      19.784 -20.079  -2.259 -1.66 -0.00    +0.000 OA
DOCKED: ATOM     11  H   UNL     1      19.170 -19.362  -2.038 -0.50 -0.00    +0.000 HD
DOCKED: ENDBRANCH   8  10
DOCKED: ENDBRANCH   5   7
DOCKED: ENDBRANCH   4   5
DOCKED: ENDBRANCH   3   4
DOCKED: ENDBRANCH   2   3
DOCKED: ENDBRANCH   1   2
DOCKED: BRANCH   1  12
DOCKED: ATOM     12  C   UNL     1      27.044 -15.338  -0.487 -0.35 -0.00    +0.000 C 
DOCKED: BRANCH  12  13
DOCKED: ATOM     13  C   UNL     1      26.946 -15.056  -1.958 -0.33 -0.00    +0.000 C 
DOCKED: ATOM     14  N   UNL     1      27.925 -15.595  -2.861 -0.25 -0.00    +0.000 N 
DOCKED: ATOM     15  O   UNL     1      26.005 -14.336  -2.389 -0.37 -0.00    +0.000 OA
DOCKED: ATOM     16  H   UNL     1      28.442 -16.378  -2.566 -0.01 -0.00    +0.000 HD
DOCKED: BRANCH  14  17
DOCKED: ATOM     17  C   UNL     1      28.194 -15.062  -4.169 -0.27 -0.00    +0.000 A 
DOCKED: ATOM     18  C   UNL     1      27.926 -13.712  -4.435 -0.21 -0.00    +0.000 A 
DOCKED: ATOM     19  C   UNL     1      28.152 -13.191  -5.710 -0.22 -0.00    +0.000 A 
DOCKED: ATOM     20  C   UNL     1      28.633 -14.028  -6.716 -0.30 -0.00    +0.000 A 
DOCKED: ATOM     21  N   UNL     1      28.867 -15.341  -6.454 -0.42 -0.00    +0.000 NA
DOCKED: ATOM     22  C   UNL     1      28.658 -15.874  -5.220 -0.29 -0.00    +0.000 A 
DOCKED: ENDBRANCH  14  17
DOCKED: ENDBRANCH  12  13
DOCKED: ENDBRANCH   1  12
DOCKED: TORSDOF 9
DOCKED: TER
DOCKED: ENDMDL
________________________________________________________________________________


	BEGINNING GENETIC ALGORITHM DOCKING 4 of 100
Run: 4 Seed: 438174227 1988378508 [ Run 4 of 100 GA/GALS ]
Beginning LAMARCKIAN GENETIC ALGORITHM (LGA), with a maximum of 2500000 energy evaluations.

Final-Value: -14.086


	FINAL GENETIC ALGORITHM DOCKED STATE
	_______________________________________________


Detailed state:  trans 24.060 -15.998 -0.408 quatxyzw 0.679232 -0.229113 -0.693439 0.072755 center -0.121 -0.193 0.463 ntor 9 9.5942 -27.3203 -89.5378 158.6780 -134.0111 33.0610 -117.0918 122.6952 -46.0690
State:	 24.060 -15.998  -0.408   0.681 -0.230 -0.695 171.656      9.59  -27.32  -89.54  158.68 -134.01   33.06 -117.09  122.70  -46.07

DOCKED: MODEL        4
DOCKED: USER    Run = 4
DOCKED: USER    DPF = ligand_dock.biased.dpf
DOCKED: USER  
DOCKED: USER    Estimated Free Energy of Binding    =  -10.10 kcal/mol  [=(1)+(2)+(3)-(4)]
DOCKED: USER    Estimated Inhibition Constant, Ki   =   39.29 nM (nanomolar)  [Temperature = 298.15 K]
DOCKED: USER    
DOCKED: USER    (1) Final Intermolecular Energy     =  -12.79 kcal/mol
DOCKED: USER        vdW + Hbond + desolv Energy     =  -12.79 kcal/mol
DOCKED: USER        Electrostatic Energy            =   +0.00 kcal/mol
DOCKED: USER    (2) Final Total Internal Energy     =   -1.30 kcal/mol
DOCKED: USER    (3) Torsional Free Energy           =   +2.68 kcal/mol
DOCKED: USER    (4) Unbound System's Energy  [=(2)] =   -1.30 kcal/mol
DOCKED: USER    
DOCKED: USER    
DOCKED: USER    NEWDPF move ligand.pdbqt
DOCKED: USER    NEWDPF about -0.121000 -0.193000 0.463000
DOCKED: USER    NEWDPF tran0 24.059855 -15.997970 -0.407690
DOCKED: USER    NEWDPF quaternion0 0.679232 -0.229113 -0.693439 0.072755
DOCKED: USER    NEWDPF axisangle0 0.681037 -0.229722 -0.695282 171.655533
DOCKED: USER    NEWDPF quat0 0.681037 -0.229722 -0.695282 171.655533
DOCKED: USER    NEWDPF dihe0 9.59 -27.32 -89.54 158.68 -134.01 33.06 -117.09 122.70 -46.07 
DOCKED: USER  keepresnum = 1 
DOCKED: USER  
DOCKED: REMARK  Name = 
DOCKED: REMARK  9 active torsions:
DOCKED: REMARK  status: ('A' for Active; 'I' for Inactive)
DOCKED: REMARK    1  A    between atoms: C_2  and  C_5
DOCKED: REMARK    2  A    between atoms: N_3  and  O_4
DOCKED: REMARK    3  A    between atoms: C_5  and  C_6
DOCKED: REMARK    4  A    between atoms: C_6  and  C_7
DOCKED: REMARK    5  A    between atoms: C_7  and  C_8
DOCKED: REMARK    6  A    between atoms: C_8  and  C_9
DOCKED: REMARK    7  A    between atoms: C_9  and  C_10
DOCKED: REMARK    8  A    between atoms: C_10  and  C_11
DOCKED: REMARK    9  A    between atoms: N_12  and  C_13
DOCKED: REMARK                            x       y       z     vdW  Elec       q    Type
DOCKED: REMARK                         _______ _______ _______ _____ _____    ______ ____
DOCKED: USER                              x       y       z     vdW  Elec       q    Type
DOCKED: USER                           _______ _______ _______ _____ _____    ______ ____
DOCKED: ROOT
DOCKED: ATOM      1  C   UNL     1      27.090 -16.832  -1.073 -0.47 -0.00    +0.000 C 
DOCKED: ENDROOT
DOCKED: BRANCH   1   2
DOCKED: ATOM      2  C   UNL     1      25.795 -17.628  -1.294 -0.57 -0.00    +0.000 C 
DOCKED: BRANCH   2   3
DOCKED: ATOM      3  C   UNL     1      24.590 -16.906  -0.674 -0.59 -0.00    +0.000 C 
DOCKED: BRANCH   3   4
DOCKED: ATOM      4  C   UNL     1      23.461 -17.870  -0.270 -0.75 -0.00    +0.000 C 
DOCKED: BRANCH   4   5
DOCKED: ATOM      5  C   UNL     1      22.748 -18.546  -1.453 -0.71 -0.00    +0.000 C 
DOCKED: BRANCH   5   7
DOCKED: ATOM      6  O   UNL     1      20.625 -17.616  -0.873 -2.16 -0.00    +0.000 OA
DOCKED: ATOM      7  C   UNL     1      21.265 -18.637  -1.242 -0.58 -0.00    +0.000 C 
DOCKED: ATOM      8  N   UNL     1      20.580 -19.878  -1.432 -0.76 -0.00    +0.000 N 
DOCKED: ATOM      9  H   UNL     1      21.082 -20.672  -1.726 -0.27 -0.00    +0.000 HD
DOCKED: BRANCH   8  10
DOCKED: ATOM     10  O   UNL     1      19.247 -19.971  -1.212 -1.14 -0.00    +0.000 OA
DOCKED: ATOM     11  H   UNL     1      18.879 -19.083  -1.079 -0.51 -0.00    +0.000 HD
DOCKED: ENDBRANCH   8  10
DOCKED: ENDBRANCH   5   7
DOCKED: ENDBRANCH   4   5
DOCKED: ENDBRANCH   3   4
DOCKED: ENDBRANCH   2   3
DOCKED: ENDBRANCH   1   2
DOCKED: BRANCH   1  12
DOCKED: ATOM     12  C   UNL     1      27.423 -16.669   0.416 -0.15 -0.00    +0.000 C 
DOCKED: BRANCH  12  13
DOCKED: ATOM     13  C   UNL     1      27.388 -15.226   0.831 -0.22 -0.00    +0.000 C 
DOCKED: ATOM     14  N   UNL     1      28.330 -14.732   1.796 -0.20 -0.00    +0.000 N 
DOCKED: ATOM     15  O   UNL     1      26.520 -14.460   0.331 -0.35 -0.00    +0.000 OA
DOCKED: ATOM     16  H   UNL     1      29.162 -15.239   1.930 -1.64 -0.00    +0.000 HD
DOCKED: BRANCH  14  17
DOCKED: ATOM     17  C   UNL     1      28.133 -13.541   2.577 -0.27 -0.00    +0.000 A 
DOCKED: ATOM     18  C   UNL     1      28.040 -13.636   3.973 -0.41 -0.00    +0.000 A 
DOCKED: ATOM     19  C   UNL     1      27.816 -12.492   4.740 -0.35 +0.00    +0.000 A 
DOCKED: ATOM     20  C   UNL     1      27.672 -11.259   4.104 -0.28 +0.00    +0.000 A 
DOCKED: ATOM     21  N   UNL     1      27.740 -11.181   2.749 -0.22 +0.00    +0.000 NA
DOCKED: ATOM     22  C   UNL     1      27.961 -12.280   1.978 -0.18 -0.00    +0.000 A 
DOCKED: ENDBRANCH  14  17
DOCKED: ENDBRANCH  12  13
DOCKED: ENDBRANCH   1  12
DOCKED: TORSDOF 9
DOCKED: TER
DOCKED: ENDMDL
________________________________________________________________________________


	BEGINNING GENETIC ALGORITHM DOCKING 5 of 100
Run: 5 Seed: 1943628413 1240378384 [ Run 5 of 100 GA/GALS ]
Beginning LAMARCKIAN GENETIC ALGORITHM (LGA), with a maximum of 2500000 energy evaluations.

Final-Value: -15.572


	FINAL GENETIC ALGORITHM DOCKED STATE
	_______________________________________________


Detailed state:  trans 24.672 -17.815 1.263 quatxyzw -0.481634 -0.170536 0.855607 0.082958 center -0.121 -0.193 0.463 ntor 9 -9.7305 -126.7535 -77.9660 164.6425 -154.2419 95.9030 -8.5626 82.5043 -80.9932
State:	 24.672 -17.815   1.263  -0.483 -0.171  0.859 170.483     -9.73 -126.75  -77.97  164.64 -154.24   95.90   -8.56   82.50  -80.99

DOCKED: MODEL        5
DOCKED: USER    Run = 5
DOCKED: USER    DPF = ligand_dock.biased.dpf
DOCKED: USER  
DOCKED: USER    Estimated Free Energy of Binding    =  -11.72 kcal/mol  [=(1)+(2)+(3)-(4)]
DOCKED: USER    Estimated Inhibition Constant, Ki   =    2.57 nM (nanomolar)  [Temperature = 298.15 K]
DOCKED: USER    
DOCKED: USER    (1) Final Intermolecular Energy     =  -14.40 kcal/mol
DOCKED: USER        vdW + Hbond + desolv Energy     =  -14.40 kcal/mol
DOCKED: USER        Electrostatic Energy            =   +0.00 kcal/mol
DOCKED: USER    (2) Final Total Internal Energy     =   -1.17 kcal/mol
DOCKED: USER    (3) Torsional Free Energy           =   +2.68 kcal/mol
DOCKED: USER    (4) Unbound System's Energy  [=(2)] =   -1.17 kcal/mol
DOCKED: USER    
DOCKED: USER    
DOCKED: USER    NEWDPF move ligand.pdbqt
DOCKED: USER    NEWDPF about -0.121000 -0.193000 0.463000
DOCKED: USER    NEWDPF tran0 24.672308 -17.814872 1.262786
DOCKED: USER    NEWDPF quaternion0 -0.481634 -0.170536 0.855607 0.082958
DOCKED: USER    NEWDPF axisangle0 -0.483300 -0.171126 0.858567 170.482799
DOCKED: USER    NEWDPF quat0 -0.483300 -0.171126 0.858567 170.482799
DOCKED: USER    NEWDPF dihe0 -9.73 -126.75 -77.97 164.64 -154.24 95.90 -8.56 82.50 -80.99 
DOCKED: USER  keepresnum = 1 
DOCKED: USER  
DOCKED: REMARK  Name = 
DOCKED: REMARK  9 active torsions:
DOCKED: REMARK  status: ('A' for Active; 'I' for Inactive)
DOCKED: REMARK    1  A    between atoms: C_2  and  C_5
DOCKED: REMARK    2  A    between atoms: N_3  and  O_4
DOCKED: REMARK    3  A    between atoms: C_5  and  C_6
DOCKED: REMARK    4  A    between atoms: C_6  and  C_7
DOCKED: REMARK    5  A    between atoms: C_7  and  C_8
DOCKED: REMARK    6  A    between atoms: C_8  and  C_9
DOCKED: REMARK    7  A    between atoms: C_9  and  C_10
DOCKED: REMARK    8  A    between atoms: C_10  and  C_11
DOCKED: REMARK    9  A    between atoms: N_12  and  C_13
DOCKED: REMARK                            x       y       z     vdW  Elec       q    Type
DOCKED: REMARK                         _______ _______ _______ _____ _____    ______ ____
DOCKED: USER                              x       y       z     vdW  Elec       q    Type
DOCKED: USER                           _______ _______ _______ _____ _____    ______ ____
DOCKED: ROOT
DOCKED: ATOM      1  C   UNL     1      26.599 -16.046  -0.601 -0.43 -0.00    +0.000 C 
DOCKED: ENDROOT
DOCKED: BRANCH   1   2
DOCKED: ATOM      2  C   UNL     1      26.041 -17.456  -0.847 -0.61 -0.00    +0.000 C 
DOCKED: BRANCH   2   3
DOCKED: ATOM      3  C   UNL     1      24.858 -17.417  -1.826 -0.66 -0.00    +0.000 C 
DOCKED: BRANCH   3   4
DOCKED: ATOM      4  C   UNL     1      23.504 -17.240  -1.116 -0.69 -0.00    +0.000 C 
DOCKED: BRANCH   4   5
DOCKED: ATOM      5  C   UNL     1      22.836 -18.557  -0.685 -0.84 -0.00    +0.000 C 
DOCKED: BRANCH   5   7
DOCKED: ATOM      6  O   UNL     1      20.632 -17.633  -0.724 -2.19 +0.00    +0.000 OA
DOCKED: ATOM      7  C   UNL     1      21.379 -18.596  -1.046 -0.80 -0.00    +0.000 C 
DOCKED: ATOM      8  N   UNL     1      20.832 -19.726  -1.731 -0.75 -0.00    +0.000 N 
DOCKED: ATOM      9  H   UNL     1      21.420 -20.473  -1.987 -0.45 -0.00    +0.000 HD
DOCKED: BRANCH   8  10
DOCKED: ATOM     10  O   UNL     1      19.512 -19.777  -2.030 -1.57 -0.00    +0.000 OA
DOCKED: ATOM     11  H   UNL     1      19.050 -19.051  -1.582 -0.56 -0.00    +0.000 HD
DOCKED: ENDBRANCH   8  10
DOCKED: ENDBRANCH   5   7
DOCKED: ENDBRANCH   4   5
DOCKED: ENDBRANCH   3   4
DOCKED: ENDBRANCH   2   3
DOCKED: ENDBRANCH   1   2
DOCKED: BRANCH   1  12
DOCKED: ATOM     12  C   UNL     1      27.621 -16.018   0.544 -0.09 -0.00    +0.000 C 
DOCKED: BRANCH  12  13
DOCKED: ATOM     13  C   UNL     1      27.636 -14.684   1.233 -0.26 -0.00    +0.000 C 
DOCKED: ATOM     14  N   UNL     1      28.470 -14.478   2.384 -0.27 -0.00    +0.000 N 
DOCKED: ATOM     15  O   UNL     1      26.907 -13.754   0.795 -0.34 -0.00    +0.000 OA
DOCKED: ATOM     16  H   UNL     1      29.234 -15.083   2.514 -1.87 -0.00    +0.000 HD
DOCKED: BRANCH  14  17
DOCKED: ATOM     17  C   UNL     1      28.255 -13.443   3.359 -0.31 -0.00    +0.000 A 
DOCKED: ATOM     18  C   UNL     1      28.204 -13.775   4.721 -0.47 -0.00    +0.000 A 
DOCKED: ATOM     19  C   UNL     1      27.964 -12.784   5.675 -0.41 -0.00    +0.000 A 
DOCKED: ATOM     20  C   UNL     1      27.761 -11.469   5.258 -0.36 +0.00    +0.000 A 
DOCKED: ATOM     21  N   UNL     1      27.789 -11.162   3.934 -0.28 +0.00    +0.000 NA
DOCKED: ATOM     22  C   UNL     1      28.024 -12.107   2.985 -0.22 -0.00    +0.000 A 
DOCKED: ENDBRANCH  14  17
DOCKED: ENDBRANCH  12  13
DOCKED: ENDBRANCH   1  12
DOCKED: TORSDOF 9
DOCKED: TER
DOCKED: ENDMDL
________________________________________________________________________________


	BEGINNING GENETIC ALGORITHM DOCKING 6 of 100
Run: 6 Seed: 1609551703 2138585600 [ Run 6 of 100 GA/GALS ]
Beginning LAMARCKIAN GENETIC ALGORITHM (LGA), with a maximum of 2500000 energy evaluations.

Final-Value: -13.585


	FINAL GENETIC ALGORITHM DOCKED STATE
	_______________________________________________


Detailed state:  trans 27.116 -17.490 0.639 quatxyzw -0.043917 -0.430798 0.819252 0.375913 center -0.121 -0.193 0.463 ntor 9 -2.2041 -120.3993 45.5274 152.2211 109.8474 -150.8231 -37.1299 151.9837 -4.2393
State:	 27.116 -17.490   0.639  -0.047 -0.465  0.884 135.839     -2.20 -120.40   45.53  152.22  109.85 -150.82  -37.13  151.98   -4.24

DOCKED: MODEL        6
DOCKED: USER    Run = 6
DOCKED: USER    DPF = ligand_dock.biased.dpf
DOCKED: USER  
DOCKED: USER    Estimated Free Energy of Binding    =   -9.55 kcal/mol  [=(1)+(2)+(3)-(4)]
DOCKED: USER    Estimated Inhibition Constant, Ki   =   99.14 nM (nanomolar)  [Temperature = 298.15 K]
DOCKED: USER    
DOCKED: USER    (1) Final Intermolecular Energy     =  -12.24 kcal/mol
DOCKED: USER        vdW + Hbond + desolv Energy     =  -12.24 kcal/mol
DOCKED: USER        Electrostatic Energy            =   +0.00 kcal/mol
DOCKED: USER    (2) Final Total Internal Energy     =   -1.35 kcal/mol
DOCKED: USER    (3) Torsional Free Energy           =   +2.68 kcal/mol
DOCKED: USER    (4) Unbound System's Energy  [=(2)] =   -1.35 kcal/mol
DOCKED: USER    
DOCKED: USER    
DOCKED: USER    NEWDPF move ligand.pdbqt
DOCKED: USER    NEWDPF about -0.121000 -0.193000 0.463000
DOCKED: USER    NEWDPF tran0 27.116122 -17.490048 0.638555
DOCKED: USER    NEWDPF quaternion0 -0.043917 -0.430798 0.819252 0.375913
DOCKED: USER    NEWDPF axisangle0 -0.047393 -0.464896 0.884096 135.838523
DOCKED: USER    NEWDPF quat0 -0.047393 -0.464896 0.884096 135.838523
DOCKED: USER    NEWDPF dihe0 -2.20 -120.40 45.53 152.22 109.85 -150.82 -37.13 151.98 -4.24 
DOCKED: USER  keepresnum = 1 
DOCKED: USER  
DOCKED: REMARK  Name = 
DOCKED: REMARK  9 active torsions:
DOCKED: REMARK  status: ('A' for Active; 'I' for Inactive)
DOCKED: REMARK    1  A    between atoms: C_2  and  C_5
DOCKED: REMARK    2  A    between atoms: N_3  and  O_4
DOCKED: REMARK    3  A    between atoms: C_5  and  C_6
DOCKED: REMARK    4  A    between atoms: C_6  and  C_7
DOCKED: REMARK    5  A    between atoms: C_7  and  C_8
DOCKED: REMARK    6  A    between atoms: C_8  and  C_9
DOCKED: REMARK    7  A    between atoms: C_9  and  C_10
DOCKED: REMARK    8  A    between atoms: C_10  and  C_11
DOCKED: REMARK    9  A    between atoms: N_12  and  C_13
DOCKED: REMARK                            x       y       z     vdW  Elec       q    Type
DOCKED: REMARK                         _______ _______ _______ _____ _____    ______ ____
DOCKED: USER                              x       y       z     vdW  Elec       q    Type
DOCKED: USER                           _______ _______ _______ _____ _____    ______ ____
DOCKED: ROOT
DOCKED: ATOM      1  C   UNL     1      25.466 -15.345  -1.092 -0.36 -0.00    +0.000 C 
DOCKED: ENDROOT
DOCKED: BRANCH   1   2
DOCKED: ATOM      2  C   UNL     1      26.123 -16.657  -1.547 -0.53 -0.00    +0.000 C 
DOCKED: BRANCH   2   3
DOCKED: ATOM      3  C   UNL     1      25.326 -17.873  -1.052 -0.67 -0.00    +0.000 C 
DOCKED: BRANCH   3   4
DOCKED: ATOM      4  C   UNL     1      23.854 -17.537  -0.753 -0.75 -0.00    +0.000 C 
DOCKED: BRANCH   4   5
DOCKED: ATOM      5  C   UNL     1      22.995 -18.748  -0.351 -0.80 -0.00    +0.000 C 
DOCKED: BRANCH   5   7
DOCKED: ATOM      6  O   UNL     1      20.973 -17.524  -0.707 -2.09 -0.00    +0.000 OA
DOCKED: ATOM      7  C   UNL     1      21.580 -18.622  -0.835 -0.85 -0.00    +0.000 C 
DOCKED: ATOM      8  N   UNL     1      20.910 -19.743  -1.417 -0.76 -0.00    +0.000 N 
DOCKED: ATOM      9  H   UNL     1      21.389 -20.597  -1.522 -0.22 -0.00    +0.000 HD
DOCKED: BRANCH   8  10
DOCKED: ATOM     10  O   UNL     1      19.623 -19.641  -1.826 -1.63 -0.00    +0.000 OA
DOCKED: ATOM     11  H   UNL     1      19.288 -18.754  -1.623 -0.42 -0.00    +0.000 HD
DOCKED: ENDBRANCH   8  10
DOCKED: ENDBRANCH   5   7
DOCKED: ENDBRANCH   4   5
DOCKED: ENDBRANCH   3   4
DOCKED: ENDBRANCH   2   3
DOCKED: ENDBRANCH   1   2
DOCKED: BRANCH   1  12
DOCKED: ATOM     12  C   UNL     1      26.503 -14.284  -0.697 -0.32 -0.00    +0.000 C 
DOCKED: BRANCH  12  13
DOCKED: ATOM     13  C   UNL     1      27.129 -14.598   0.631 -0.26 -0.00    +0.000 C 
DOCKED: ATOM     14  N   UNL     1      26.905 -13.731   1.755 -0.30 -0.00    +0.000 N 
DOCKED: ATOM     15  O   UNL     1      27.856 -15.621   0.746 -0.33 -0.00    +0.000 OA
DOCKED: ATOM     16  H   UNL     1      26.117 -13.142   1.733 -0.02 -0.00    +0.000 HD
DOCKED: BRANCH  14  17
DOCKED: ATOM     17  C   UNL     1      27.762 -13.669   2.908 -0.33 -0.00    +0.000 A 
DOCKED: ATOM     18  C   UNL     1      27.319 -14.200   4.128 -0.48 -0.00    +0.000 A 
DOCKED: ATOM     19  C   UNL     1      28.128 -14.118   5.262 -0.46 -0.00    +0.000 A 
DOCKED: ATOM     20  C   UNL     1      29.371 -13.490   5.173 -0.33 -0.00    +0.000 A 
DOCKED: ATOM     21  N   UNL     1      29.780 -12.957   3.991 -0.16 -0.00    +0.000 NA
DOCKED: ATOM     22  C   UNL     1      29.013 -13.027   2.870 -0.17 -0.00    +0.000 A 
DOCKED: ENDBRANCH  14  17
DOCKED: ENDBRANCH  12  13
DOCKED: ENDBRANCH   1  12
DOCKED: TORSDOF 9
DOCKED: TER
DOCKED: ENDMDL
________________________________________________________________________________


	BEGINNING GENETIC ALGORITHM DOCKING 7 of 100
Run: 7 Seed: 580437072 1535694228 [ Run 7 of 100 GA/GALS ]
Beginning LAMARCKIAN GENETIC ALGORITHM (LGA), with a maximum of 2500000 energy evaluations.

Final-Value: -15.118


	FINAL GENETIC ALGORITHM DOCKED STATE
	_______________________________________________


Detailed state:  trans 27.212 -17.195 -2.873 quatxyzw -0.755840 0.621197 -0.200330 0.051853 center -0.121 -0.193 0.463 ntor 9 10.0290 -63.1181 1.1662 164.9548 -165.0482 62.4676 147.7062 -65.8310 -136.5824
State:	 27.212 -17.195  -2.873  -0.757  0.622 -0.201 174.055     10.03  -63.12    1.17  164.95 -165.05   62.47  147.71  -65.83 -136.58

DOCKED: MODEL        7
DOCKED: USER    Run = 7
DOCKED: USER    DPF = ligand_dock.biased.dpf
DOCKED: USER  
DOCKED: USER    Estimated Free Energy of Binding    =  -11.17 kcal/mol  [=(1)+(2)+(3)-(4)]
DOCKED: USER    Estimated Inhibition Constant, Ki   =    6.48 nM (nanomolar)  [Temperature = 298.15 K]
DOCKED: USER    
DOCKED: USER    (1) Final Intermolecular Energy     =  -13.86 kcal/mol
DOCKED: USER        vdW + Hbond + desolv Energy     =  -13.86 kcal/mol
DOCKED: USER        Electrostatic Energy            =   +0.00 kcal/mol
DOCKED: USER    (2) Final Total Internal Energy     =   -1.26 kcal/mol
DOCKED: USER    (3) Torsional Free Energy           =   +2.68 kcal/mol
DOCKED: USER    (4) Unbound System's Energy  [=(2)] =   -1.26 kcal/mol
DOCKED: USER    
DOCKED: USER    
DOCKED: USER    NEWDPF move ligand.pdbqt
DOCKED: USER    NEWDPF about -0.121000 -0.193000 0.463000
DOCKED: USER    NEWDPF tran0 27.212131 -17.194595 -2.873132
DOCKED: USER    NEWDPF quaternion0 -0.755840 0.621197 -0.200330 0.051853
DOCKED: USER    NEWDPF axisangle0 -0.756858 0.622033 -0.200600 174.055388
DOCKED: USER    NEWDPF quat0 -0.756858 0.622033 -0.200600 174.055388
DOCKED: USER    NEWDPF dihe0 10.03 -63.12 1.17 164.95 -165.05 62.47 147.71 -65.83 -136.58 
DOCKED: USER  keepresnum = 1 
DOCKED: USER  
DOCKED: REMARK  Name = 
DOCKED: REMARK  9 active torsions:
DOCKED: REMARK  status: ('A' for Active; 'I' for Inactive)
DOCKED: REMARK    1  A    between atoms: C_2  and  C_5
DOCKED: REMARK    2  A    between atoms: N_3  and  O_4
DOCKED: REMARK    3  A    between atoms: C_5  and  C_6
DOCKED: REMARK    4  A    between atoms: C_6  and  C_7
DOCKED: REMARK    5  A    between atoms: C_7  and  C_8
DOCKED: REMARK    6  A    between atoms: C_8  and  C_9
DOCKED: REMARK    7  A    between atoms: C_9  and  C_10
DOCKED: REMARK    8  A    between atoms: C_10  and  C_11
DOCKED: REMARK    9  A    between atoms: N_12  and  C_13
DOCKED: REMARK                            x       y       z     vdW  Elec       q    Type
DOCKED: REMARK                         _______ _______ _______ _____ _____    ______ ____
DOCKED: USER                              x       y       z     vdW  Elec       q    Type
DOCKED: USER                           _______ _______ _______ _____ _____    ______ ____
DOCKED: ROOT
DOCKED: ATOM      1  C   UNL     1      27.200 -16.611   0.285 -0.28 -0.00    +0.000 C 
DOCKED: ENDROOT
DOCKED: BRANCH   1   2
DOCKED: ATOM      2  C   UNL     1      26.330 -17.586  -0.523 -0.60 -0.00    +0.000 C 
DOCKED: BRANCH   2   3
DOCKED: ATOM      3  C   UNL     1      24.926 -17.010  -0.754 -0.63 -0.00    +0.000 C 
DOCKED: BRANCH   3   4
DOCKED: ATOM      4  C   UNL     1      23.810 -17.935  -0.236 -0.74 -0.00    +0.000 C 
DOCKED: BRANCH   4   5
DOCKED: ATOM      5  C   UNL     1      23.144 -18.797  -1.321 -0.79 -0.00    +0.000 C 
DOCKED: BRANCH   5   7
DOCKED: ATOM      6  O   UNL     1      21.085 -17.918  -0.485 -1.96 -0.00    +0.000 OA
DOCKED: ATOM      7  C   UNL     1      21.646 -18.774  -1.220 -0.70 -0.00    +0.000 C 
DOCKED: ATOM      8  N   UNL     1      20.857 -19.732  -1.932 -0.67 -0.00    +0.000 N 
DOCKED: ATOM      9  H   UNL     1      21.299 -20.394  -2.510 -0.54 -0.00    +0.000 HD
DOCKED: BRANCH   8  10
DOCKED: ATOM     10  O   UNL     1      19.508 -19.733  -1.818 -1.67 -0.00    +0.000 OA
DOCKED: ATOM     11  H   UNL     1      19.222 -18.934  -1.349 -0.44 -0.00    +0.000 HD
DOCKED: ENDBRANCH   8  10
DOCKED: ENDBRANCH   5   7
DOCKED: ENDBRANCH   4   5
DOCKED: ENDBRANCH   3   4
DOCKED: ENDBRANCH   2   3
DOCKED: ENDBRANCH   1   2
DOCKED: BRANCH   1  12
DOCKED: ATOM     12  C   UNL     1      26.868 -15.145  -0.024 -0.32 -0.00    +0.000 C 
DOCKED: BRANCH  12  13
DOCKED: ATOM     13  C   UNL     1      27.195 -14.252   1.138 -0.24 -0.00    +0.000 C 
DOCKED: ATOM     14  N   UNL     1      28.239 -14.617   2.054 -0.23 -0.00    +0.000 N 
DOCKED: ATOM     15  O   UNL     1      26.540 -13.187   1.304 -0.38 -0.00    +0.000 OA
DOCKED: ATOM     16  H   UNL     1      28.920 -15.256   1.746 -1.42 -0.00    +0.000 HD
DOCKED: BRANCH  14  17
DOCKED: ATOM     17  C   UNL     1      28.350 -14.106   3.394 -0.36 -0.00    +0.000 A 
DOCKED: ATOM     18  C   UNL     1      29.611 -14.026   4.002 -0.30 -0.00    +0.000 A 
DOCKED: ATOM     19  C   UNL     1      29.728 -13.562   5.313 -0.31 -0.00    +0.000 A 
DOCKED: ATOM     20  C   UNL     1      28.580 -13.196   6.015 -0.39 -0.00    +0.000 A 
DOCKED: ATOM     21  N   UNL     1      27.360 -13.301   5.425 -0.44 -0.00    +0.000 NA
DOCKED: ATOM     22  C   UNL     1      27.218 -13.746   4.147 -0.43 -0.00    +0.000 A 
DOCKED: ENDBRANCH  14  17
DOCKED: ENDBRANCH  12  13
DOCKED: ENDBRANCH   1  12
DOCKED: TORSDOF 9
DOCKED: TER
DOCKED: ENDMDL
________________________________________________________________________________


	BEGINNING GENETIC ALGORITHM DOCKING 8 of 100
Run: 8 Seed: 149917698 899929085 [ Run 8 of 100 GA/GALS ]
Beginning LAMARCKIAN GENETIC ALGORITHM (LGA), with a maximum of 2500000 energy evaluations.

Final-Value: -14.066


	FINAL GENETIC ALGORITHM DOCKED STATE
	_______________________________________________


Detailed state:  trans 25.053 -18.994 -3.030 quatxyzw 0.757645 -0.467158 0.100990 -0.444453 center -0.121 -0.193 0.463 ntor 9 -15.2637 -156.0582 -92.5184 -157.4567 -164.9373 94.2731 -155.2071 -168.1254 -52.7827
State:	 25.053 -18.994  -3.030   0.846 -0.521  0.113 -127.223    -15.26 -156.06  -92.52 -157.46 -164.94   94.27 -155.21 -168.13  -52.78

DOCKED: MODEL        8
DOCKED: USER    Run = 8
DOCKED: USER    DPF = ligand_dock.biased.dpf
DOCKED: USER  
DOCKED: USER    Estimated Free Energy of Binding    =  -10.07 kcal/mol  [=(1)+(2)+(3)-(4)]
DOCKED: USER    Estimated Inhibition Constant, Ki   =   41.65 nM (nanomolar)  [Temperature = 298.15 K]
DOCKED: USER    
DOCKED: USER    (1) Final Intermolecular Energy     =  -12.75 kcal/mol
DOCKED: USER        vdW + Hbond + desolv Energy     =  -12.75 kcal/mol
DOCKED: USER        Electrostatic Energy            =   +0.00 kcal/mol
DOCKED: USER    (2) Final Total Internal Energy     =   -1.31 kcal/mol
DOCKED: USER    (3) Torsional Free Energy           =   +2.68 kcal/mol
DOCKED: USER    (4) Unbound System's Energy  [=(2)] =   -1.31 kcal/mol
DOCKED: USER    
DOCKED: USER    
DOCKED: USER    NEWDPF move ligand.pdbqt
DOCKED: USER    NEWDPF about -0.121000 -0.193000 0.463000
DOCKED: USER    NEWDPF tran0 25.053018 -18.994278 -3.030402
DOCKED: USER    NEWDPF quaternion0 0.757645 -0.467158 0.100990 -0.444453
DOCKED: USER    NEWDPF axisangle0 0.845773 -0.521497 0.112737 -127.223341
DOCKED: USER    NEWDPF quat0 0.845773 -0.521497 0.112737 -127.223341
DOCKED: USER    NEWDPF dihe0 -15.26 -156.06 -92.52 -157.46 -164.94 94.27 -155.21 -168.13 -52.78 
DOCKED: USER  keepresnum = 1 
DOCKED: USER  
DOCKED: REMARK  Name = 
DOCKED: REMARK  9 active torsions:
DOCKED: REMARK  status: ('A' for Active; 'I' for Inactive)
DOCKED: REMARK    1  A    between atoms: C_2  and  C_5
DOCKED: REMARK    2  A    between atoms: N_3  and  O_4
DOCKED: REMARK    3  A    between atoms: C_5  and  C_6
DOCKED: REMARK    4  A    between atoms: C_6  and  C_7
DOCKED: REMARK    5  A    between atoms: C_7  and  C_8
DOCKED: REMARK    6  A    between atoms: C_8  and  C_9
DOCKED: REMARK    7  A    between atoms: C_9  and  C_10
DOCKED: REMARK    8  A    between atoms: C_10  and  C_11
DOCKED: REMARK    9  A    between atoms: N_12  and  C_13
DOCKED: REMARK                            x       y       z     vdW  Elec       q    Type
DOCKED: REMARK                         _______ _______ _______ _____ _____    ______ ____
DOCKED: USER                              x       y       z     vdW  Elec       q    Type
DOCKED: USER                           _______ _______ _______ _____ _____    ______ ____
DOCKED: ROOT
DOCKED: ATOM      1  C   UNL     1      26.723 -16.902  -1.256 -0.49 -0.00    +0.000 C 
DOCKED: ENDROOT
DOCKED: BRANCH   1   2
DOCKED: ATOM      2  C   UNL     1      25.806 -18.046  -0.797 -0.62 -0.00    +0.000 C 
DOCKED: BRANCH   2   3
DOCKED: ATOM      3  C   UNL     1      24.500 -18.063  -1.604 -0.63 -0.00    +0.000 C 
DOCKED: BRANCH   3   4
DOCKED: ATOM      4  C   UNL     1      23.380 -17.241  -0.942 -0.71 -0.00    +0.000 C 
DOCKED: BRANCH   4   5
DOCKED: ATOM      5  C   UNL     1      22.369 -18.076  -0.138 -0.80 -0.00    +0.000 C 
DOCKED: BRANCH   5   7
DOCKED: ATOM      6  O   UNL     1      20.237 -17.548  -1.080 -2.02 -0.00    +0.000 OA
DOCKED: ATOM      7  C   UNL     1      21.147 -18.410  -0.943 -0.75 -0.00    +0.000 C 
DOCKED: ATOM      8  N   UNL     1      20.998 -19.705  -1.532 -0.74 -0.00    +0.000 N 
DOCKED: ATOM      9  H   UNL     1      21.713 -20.373  -1.428 -0.29 -0.00    +0.000 HD
DOCKED: BRANCH   8  10
DOCKED: ATOM     10  O   UNL     1      19.882 -20.019  -2.232 -1.80 -0.00    +0.000 OA
DOCKED: ATOM     11  H   UNL     1      19.188 -19.368  -2.045 -0.49 -0.00    +0.000 HD
DOCKED: ENDBRANCH   8  10
DOCKED: ENDBRANCH   5   7
DOCKED: ENDBRANCH   4   5
DOCKED: ENDBRANCH   3   4
DOCKED: ENDBRANCH   2   3
DOCKED: ENDBRANCH   1   2
DOCKED: BRANCH   1  12
DOCKED: ATOM     12  C   UNL     1      25.940 -15.765  -1.926 -0.49 -0.00    +0.000 C 
DOCKED: BRANCH  12  13
DOCKED: ATOM     13  C   UNL     1      26.440 -15.501  -3.317 -0.48 -0.00    +0.000 C 
DOCKED: ATOM     14  N   UNL     1      27.692 -14.824  -3.516 -0.24 -0.00    +0.000 N 
DOCKED: ATOM     15  O   UNL     1      25.748 -15.871  -4.304 -0.72 -0.00    +0.000 OA
DOCKED: ATOM     16  H   UNL     1      28.340 -14.827  -2.776 +0.01 -0.00    +0.000 HD
DOCKED: BRANCH  14  17
DOCKED: ATOM     17  C   UNL     1      28.056 -14.143  -4.729 -0.25 -0.00    +0.000 A 
DOCKED: ATOM     18  C   UNL     1      28.217 -12.751  -4.719 -0.14 -0.00    +0.000 A 
DOCKED: ATOM     19  C   UNL     1      28.538 -12.074  -5.897 -0.13 -0.00    +0.000 A 
DOCKED: ATOM     20  C   UNL     1      28.682 -12.795  -7.082 -0.23 -0.00    +0.000 A 
DOCKED: ATOM     21  N   UNL     1      28.499 -14.141  -7.086 -0.35 -0.00    +0.000 NA
DOCKED: ATOM     22  C   UNL     1      28.189 -14.825  -5.952 -0.37 -0.00    +0.000 A 
DOCKED: ENDBRANCH  14  17
DOCKED: ENDBRANCH  12  13
DOCKED: ENDBRANCH   1  12
DOCKED: TORSDOF 9
DOCKED: TER
DOCKED: ENDMDL
________________________________________________________________________________


	BEGINNING GENETIC ALGORITHM DOCKING 9 of 100
Run: 9 Seed: 658562851 975596645 [ Run 9 of 100 GA/GALS ]
Beginning LAMARCKIAN GENETIC ALGORITHM (LGA), with a maximum of 2500000 energy evaluations.

Final-Value: -14.480


	FINAL GENETIC ALGORITHM DOCKED STATE
	_______________________________________________


Detailed state:  trans 26.419 -18.513 -1.727 quatxyzw 0.558099 -0.285806 0.488661 -0.606671 center -0.121 -0.193 0.463 ntor 9 -24.8372 -108.9777 95.0228 165.2805 156.7819 48.3259 -168.9294 -26.1464 -175.4904
State:	 26.419 -18.513  -1.727   0.702 -0.360  0.615 -105.302    -24.84 -108.98   95.02  165.28  156.78   48.33 -168.93  -26.15 -175.49

DOCKED: MODEL        9
DOCKED: USER    Run = 9
DOCKED: USER    DPF = ligand_dock.biased.dpf
DOCKED: USER  
DOCKED: USER    Estimated Free Energy of Binding    =  -10.52 kcal/mol  [=(1)+(2)+(3)-(4)]
DOCKED: USER    Estimated Inhibition Constant, Ki   =   19.44 nM (nanomolar)  [Temperature = 298.15 K]
DOCKED: USER    
DOCKED: USER    (1) Final Intermolecular Energy     =  -13.20 kcal/mol
DOCKED: USER        vdW + Hbond + desolv Energy     =  -13.20 kcal/mol
DOCKED: USER        Electrostatic Energy            =   +0.00 kcal/mol
DOCKED: USER    (2) Final Total Internal Energy     =   -1.28 kcal/mol
DOCKED: USER    (3) Torsional Free Energy           =   +2.68 kcal/mol
DOCKED: USER    (4) Unbound System's Energy  [=(2)] =   -1.28 kcal/mol
DOCKED: USER    
DOCKED: USER    
DOCKED: USER    NEWDPF move ligand.pdbqt
DOCKED: USER    NEWDPF about -0.121000 -0.193000 0.463000
DOCKED: USER    NEWDPF tran0 26.418517 -18.513199 -1.727285
DOCKED: USER    NEWDPF quaternion0 0.558099 -0.285806 0.488661 -0.606671
DOCKED: USER    NEWDPF axisangle0 0.702054 -0.359526 0.614705 -105.301580
DOCKED: USER    NEWDPF quat0 0.702054 -0.359526 0.614705 -105.301580
DOCKED: USER    NEWDPF dihe0 -24.84 -108.98 95.02 165.28 156.78 48.33 -168.93 -26.15 -175.49 
DOCKED: USER  keepresnum = 1 
DOCKED: USER  
DOCKED: REMARK  Name = 
DOCKED: REMARK  9 active torsions:
DOCKED: REMARK  status: ('A' for Active; 'I' for Inactive)
DOCKED: REMARK    1  A    between atoms: C_2  and  C_5
DOCKED: REMARK    2  A    between atoms: N_3  and  O_4
DOCKED: REMARK    3  A    between atoms: C_5  and  C_6
DOCKED: REMARK    4  A    between atoms: C_6  and  C_7
DOCKED: REMARK    5  A    between atoms: C_7  and  C_8
DOCKED: REMARK    6  A    between atoms: C_8  and  C_9
DOCKED: REMARK    7  A    between atoms: C_9  and  C_10
DOCKED: REMARK    8  A    between atoms: C_10  and  C_11
DOCKED: REMARK    9  A    between atoms: N_12  and  C_13
DOCKED: REMARK                            x       y       z     vdW  Elec       q    Type
DOCKED: REMARK                         _______ _______ _______ _____ _____    ______ ____
DOCKED: USER                              x       y       z     vdW  Elec       q    Type
DOCKED: USER                           _______ _______ _______ _____ _____    ______ ____
DOCKED: ROOT
DOCKED: ATOM      1  C   UNL     1      26.629 -15.329  -2.092 -0.38 -0.00    +0.000 C 
DOCKED: ENDROOT
DOCKED: BRANCH   1   2
DOCKED: ATOM      2  C   UNL     1      25.881 -16.134  -1.018 -0.50 -0.00    +0.000 C 
DOCKED: BRANCH   2   3
DOCKED: ATOM      3  C   UNL     1      24.847 -17.074  -1.653 -0.66 -0.00    +0.000 C 
DOCKED: BRANCH   3   4
DOCKED: ATOM      4  C   UNL     1      23.511 -17.092  -0.890 -0.68 -0.00    +0.000 C 
DOCKED: BRANCH   4   5
DOCKED: ATOM      5  C   UNL     1      22.901 -18.492  -0.710 -0.84 -0.00    +0.000 C 
DOCKED: BRANCH   5   7
DOCKED: ATOM      6  O   UNL     1      20.728 -17.502  -0.827 -2.09 -0.00    +0.000 OA
DOCKED: ATOM      7  C   UNL     1      21.439 -18.519  -1.051 -0.78 -0.00    +0.000 C 
DOCKED: ATOM      8  N   UNL     1      20.844 -19.697  -1.603 -0.76 -0.00    +0.000 N 
DOCKED: ATOM      9  H   UNL     1      21.404 -20.487  -1.783 -0.38 -0.00    +0.000 HD
DOCKED: BRANCH   8  10
DOCKED: ATOM     10  O   UNL     1      19.520 -19.735  -1.882 -1.66 -0.00    +0.000 OA
DOCKED: ATOM     11  H   UNL     1      19.053 -19.094  -1.323 -0.50 -0.00    +0.000 HD
DOCKED: ENDBRANCH   8  10
DOCKED: ENDBRANCH   5   7
DOCKED: ENDBRANCH   4   5
DOCKED: ENDBRANCH   3   4
DOCKED: ENDBRANCH   2   3
DOCKED: ENDBRANCH   1   2
DOCKED: BRANCH   1  12
DOCKED: ATOM     12  C   UNL     1      25.991 -15.483  -3.480 -0.56 -0.00    +0.000 C 
DOCKED: BRANCH  12  13
DOCKED: ATOM     13  C   UNL     1      25.417 -14.183  -3.966 -0.53 -0.00    +0.000 C 
DOCKED: ATOM     14  N   UNL     1      26.288 -13.088  -4.291 -0.33 -0.00    +0.000 N 
DOCKED: ATOM     15  O   UNL     1      24.167 -14.062  -4.076 -1.04 -0.00    +0.000 OA
DOCKED: ATOM     16  H   UNL     1      27.228 -13.292  -4.496 -0.00 -0.00    +0.000 HD
DOCKED: BRANCH  14  17
DOCKED: ATOM     17  C   UNL     1      25.871 -11.713  -4.337 -0.26 -0.00    +0.000 A 
DOCKED: ATOM     18  C   UNL     1      24.839 -11.331  -5.206 -0.35 -0.00    +0.000 A 
DOCKED: ATOM     19  C   UNL     1      24.447  -9.994  -5.284 -0.37 -0.00    +0.000 A 
DOCKED: ATOM     20  C   UNL     1      25.101  -9.043  -4.500 -0.25 -0.00    +0.000 A 
DOCKED: ATOM     21  N   UNL     1      26.116  -9.420  -3.679 -0.17 -0.00    +0.000 NA
DOCKED: ATOM     22  C   UNL     1      26.515 -10.716  -3.582 -0.13 -0.00    +0.000 A 
DOCKED: ENDBRANCH  14  17
DOCKED: ENDBRANCH  12  13
DOCKED: ENDBRANCH   1  12
DOCKED: TORSDOF 9
DOCKED: TER
DOCKED: ENDMDL
________________________________________________________________________________


	BEGINNING GENETIC ALGORITHM DOCKING 10 of 100
Run: 10 Seed: 599876546 177818949 [ Run 10 of 100 GA/GALS ]
Beginning LAMARCKIAN GENETIC ALGORITHM (LGA), with a maximum of 2500000 energy evaluations.

Final-Value: -14.186


	FINAL GENETIC ALGORITHM DOCKED STATE
	_______________________________________________


Detailed state:  trans 27.501 -18.485 -2.744 quatxyzw -0.548446 0.754401 -0.351787 0.079576 center -0.121 -0.193 0.463 ntor 9 31.5631 178.3733 94.5359 123.0762 53.0777 33.9360 120.0248 -26.1841 -155.4497
State:	 27.501 -18.485  -2.744  -0.550  0.757 -0.353 170.872     31.56  178.37   94.54  123.08   53.08   33.94  120.02  -26.18 -155.45

DOCKED: MODEL       10
DOCKED: USER    Run = 10
DOCKED: USER    DPF = ligand_dock.biased.dpf
DOCKED: USER  
DOCKED: USER    Estimated Free Energy of Binding    =  -10.33 kcal/mol  [=(1)+(2)+(3)-(4)]
DOCKED: USER    Estimated Inhibition Constant, Ki   =   26.69 nM (nanomolar)  [Temperature = 298.15 K]
DOCKED: USER    
DOCKED: USER    (1) Final Intermolecular Energy     =  -13.02 kcal/mol
DOCKED: USER        vdW + Hbond + desolv Energy     =  -13.02 kcal/mol
DOCKED: USER        Electrostatic Energy            =   +0.00 kcal/mol
DOCKED: USER    (2) Final Total Internal Energy     =   -1.17 kcal/mol
DOCKED: USER    (3) Torsional Free Energy           =   +2.68 kcal/mol
DOCKED: USER    (4) Unbound System's Energy  [=(2)] =   -1.17 kcal/mol
DOCKED: USER    
DOCKED: USER    
DOCKED: USER    NEWDPF move ligand.pdbqt
DOCKED: USER    NEWDPF about -0.121000 -0.193000 0.463000
DOCKED: USER    NEWDPF tran0 27.500655 -18.484750 -2.744207
DOCKED: USER    NEWDPF quaternion0 -0.548446 0.754401 -0.351787 0.079576
DOCKED: USER    NEWDPF axisangle0 -0.550191 0.756801 -0.352906 170.871612
DOCKED: USER    NEWDPF quat0 -0.550191 0.756801 -0.352906 170.871612
DOCKED: USER    NEWDPF dihe0 31.56 178.37 94.54 123.08 53.08 33.94 120.02 -26.18 -155.45 
DOCKED: USER  keepresnum = 1 
DOCKED: USER  
DOCKED: REMARK  Name = 
DOCKED: REMARK  9 active torsions:
DOCKED: REMARK  status: ('A' for Active; 'I' for Inactive)
DOCKED: REMARK    1  A    between atoms: C_2  and  C_5
DOCKED: REMARK    2  A    between atoms: N_3  and  O_4
DOCKED: REMARK    3  A    between atoms: C_5  and  C_6
DOCKED: REMARK    4  A    between atoms: C_6  and  C_7
DOCKED: REMARK    5  A    between atoms: C_7  and  C_8
DOCKED: REMARK    6  A    between atoms: C_8  and  C_9
DOCKED: REMARK    7  A    between atoms: C_9  and  C_10
DOCKED: REMARK    8  A    between atoms: C_10  and  C_11
DOCKED: REMARK    9  A    between atoms: N_12  and  C_13
DOCKED: REMARK                            x       y       z     vdW  Elec       q    Type
DOCKED: REMARK                         _______ _______ _______ _____ _____    ______ ____
DOCKED: USER                              x       y       z     vdW  Elec       q    Type
DOCKED: USER                           _______ _______ _______ _____ _____    ______ ____
DOCKED: ROOT
DOCKED: ATOM      1  C   UNL     1      27.022 -17.159   0.142 -0.40 -0.00    +0.000 C 
DOCKED: ENDROOT
DOCKED: BRANCH   1   2
DOCKED: ATOM      2  C   UNL     1      26.016 -17.868  -0.778 -0.62 -0.00    +0.000 C 
DOCKED: BRANCH   2   3
DOCKED: ATOM      3  C   UNL     1      24.755 -17.015  -0.976 -0.66 -0.00    +0.000 C 
DOCKED: BRANCH   3   4
DOCKED: ATOM      4  C   UNL     1      23.502 -17.861  -1.266 -0.75 -0.00    +0.000 C 
DOCKED: BRANCH   4   5
DOCKED: ATOM      5  C   UNL     1      22.378 -17.710  -0.227 -0.76 -0.00    +0.000 C 
DOCKED: BRANCH   5   7
DOCKED: ATOM      6  O   UNL     1      20.157 -18.178  -0.976 -2.04 -0.00    +0.000 OA
DOCKED: ATOM      7  C   UNL     1      21.230 -18.638  -0.499 -0.82 -0.00    +0.000 C 
DOCKED: ATOM      8  N   UNL     1      21.337 -20.032  -0.198 -0.53 -0.00    +0.000 N 
DOCKED: ATOM      9  H   UNL     1      22.178 -20.388   0.168 -0.56 -0.00    +0.000 HD
DOCKED: BRANCH   8  10
DOCKED: ATOM     10  O   UNL     1      20.291 -20.865  -0.413 -0.64 -0.00    +0.000 OA
DOCKED: ATOM     11  H   UNL     1      19.776 -20.550  -1.171 -0.52 -0.00    +0.000 HD
DOCKED: ENDBRANCH   8  10
DOCKED: ENDBRANCH   5   7
DOCKED: ENDBRANCH   4   5
DOCKED: ENDBRANCH   3   4
DOCKED: ENDBRANCH   2   3
DOCKED: ENDBRANCH   1   2
DOCKED: BRANCH   1  12
DOCKED: ATOM     12  C   UNL     1      27.491 -15.817  -0.437 -0.35 -0.00    +0.000 C 
DOCKED: BRANCH  12  13
DOCKED: ATOM     13  C   UNL     1      27.477 -14.736   0.605 -0.29 -0.00    +0.000 C 
DOCKED: ATOM     14  N   UNL     1      28.397 -14.786   1.706 -0.18 -0.00    +0.000 N 
DOCKED: ATOM     15  O   UNL     1      26.646 -13.793   0.506 -0.36 -0.00    +0.000 OA
DOCKED: ATOM     16  H   UNL     1      29.212 -15.328   1.603 -1.28 -0.00    +0.000 HD
DOCKED: BRANCH  14  17
DOCKED: ATOM     17  C   UNL     1      28.202 -14.092   2.951 -0.33 -0.00    +0.000 A 
DOCKED: ATOM     18  C   UNL     1      28.072 -12.697   2.952 -0.24 -0.00    +0.000 A 
DOCKED: ATOM     19  C   UNL     1      27.915 -12.009   4.157 -0.29 +0.00    +0.000 A 
DOCKED: ATOM     20  C   UNL     1      27.904 -12.722   5.355 -0.41 -0.00    +0.000 A 
DOCKED: ATOM     21  N   UNL     1      28.055 -14.073   5.345 -0.51 -0.00    +0.000 NA
DOCKED: ATOM     22  C   UNL     1      28.206 -14.767   4.185 -0.48 -0.00    +0.000 A 
DOCKED: ENDBRANCH  14  17
DOCKED: ENDBRANCH  12  13
DOCKED: ENDBRANCH   1  12
DOCKED: TORSDOF 9
DOCKED: TER
DOCKED: ENDMDL
________________________________________________________________________________


	BEGINNING GENETIC ALGORITHM DOCKING 11 of 100
Run: 11 Seed: 2135546812 673482381 [ Run 11 of 100 GA/GALS ]
Beginning LAMARCKIAN GENETIC ALGORITHM (LGA), with a maximum of 2500000 energy evaluations.

Final-Value: -14.581


	FINAL GENETIC ALGORITHM DOCKED STATE
	_______________________________________________


Detailed state:  trans 24.727 -15.000 0.001 quatxyzw 0.094795 -0.304872 -0.745281 -0.585340 center -0.121 -0.193 0.463 ntor 9 -5.9860 -179.8761 -173.5261 127.9482 162.1043 158.0291 -11.6814 -175.3257 -166.2693
State:	 24.727 -15.000   0.001   0.117 -0.376 -0.919 -108.346     -5.99 -179.88 -173.53  127.95  162.10  158.03  -11.68 -175.33 -166.27

DOCKED: MODEL       11
DOCKED: USER    Run = 11
DOCKED: USER    DPF = ligand_dock.biased.dpf
DOCKED: USER  
DOCKED: USER    Estimated Free Energy of Binding    =  -10.64 kcal/mol  [=(1)+(2)+(3)-(4)]
DOCKED: USER    Estimated Inhibition Constant, Ki   =   15.90 nM (nanomolar)  [Temperature = 298.15 K]
DOCKED: USER    
DOCKED: USER    (1) Final Intermolecular Energy     =  -13.32 kcal/mol
DOCKED: USER        vdW + Hbond + desolv Energy     =  -13.32 kcal/mol
DOCKED: USER        Electrostatic Energy            =   +0.00 kcal/mol
DOCKED: USER    (2) Final Total Internal Energy     =   -1.26 kcal/mol
DOCKED: USER    (3) Torsional Free Energy           =   +2.68 kcal/mol
DOCKED: USER    (4) Unbound System's Energy  [=(2)] =   -1.26 kcal/mol
DOCKED: USER    
DOCKED: USER    
DOCKED: USER    NEWDPF move ligand.pdbqt
DOCKED: USER    NEWDPF about -0.121000 -0.193000 0.463000
DOCKED: USER    NEWDPF tran0 24.726701 -15.000489 0.001107
DOCKED: USER    NEWDPF quaternion0 0.094795 -0.304872 -0.745281 -0.585340
DOCKED: USER    NEWDPF axisangle0 0.116917 -0.376019 -0.919206 -108.345984
DOCKED: USER    NEWDPF quat0 0.116917 -0.376019 -0.919206 -108.345984
DOCKED: USER    NEWDPF dihe0 -5.99 -179.88 -173.53 127.95 162.10 158.03 -11.68 -175.33 -166.27 
DOCKED: USER  keepresnum = 1 
DOCKED: USER  
DOCKED: REMARK  Name = 
DOCKED: REMARK  9 active torsions:
DOCKED: REMARK  status: ('A' for Active; 'I' for Inactive)
DOCKED: REMARK    1  A    between atoms: C_2  and  C_5
DOCKED: REMARK    2  A    between atoms: N_3  and  O_4
DOCKED: REMARK    3  A    between atoms: C_5  and  C_6
DOCKED: REMARK    4  A    between atoms: C_6  and  C_7
DOCKED: REMARK    5  A    between atoms: C_7  and  C_8
DOCKED: REMARK    6  A    between atoms: C_8  and  C_9
DOCKED: REMARK    7  A    between atoms: C_9  and  C_10
DOCKED: REMARK    8  A    between atoms: C_10  and  C_11
DOCKED: REMARK    9  A    between atoms: N_12  and  C_13
DOCKED: REMARK                            x       y       z     vdW  Elec       q    Type
DOCKED: REMARK                         _______ _______ _______ _____ _____    ______ ____
DOCKED: USER                              x       y       z     vdW  Elec       q    Type
DOCKED: USER                           _______ _______ _______ _____ _____    ______ ____
DOCKED: ROOT
DOCKED: ATOM      1  C   UNL     1      25.542 -16.553  -2.690 -0.49 -0.00    +0.000 C 
DOCKED: ENDROOT
DOCKED: BRANCH   1   2
DOCKED: ATOM      2  C   UNL     1      25.948 -16.851  -1.238 -0.57 -0.00    +0.000 C 
DOCKED: BRANCH   2   3
DOCKED: ATOM      3  C   UNL     1      25.081 -17.969  -0.642 -0.71 -0.00    +0.000 C 
DOCKED: BRANCH   3   4
DOCKED: ATOM      4  C   UNL     1      23.680 -18.038  -1.277 -0.78 -0.00    +0.000 C 
DOCKED: BRANCH   4   5
DOCKED: ATOM      5  C   UNL     1      22.527 -18.124  -0.263 -0.82 -0.00    +0.000 C 
DOCKED: BRANCH   5   7
DOCKED: ATOM      6  O   UNL     1      20.372 -17.489  -1.080 -2.05 -0.00    +0.000 OA
DOCKED: ATOM      7  C   UNL     1      21.212 -18.416  -0.927 -0.76 -0.00    +0.000 C 
DOCKED: ATOM      8  N   UNL     1      20.899 -19.742  -1.364 -0.77 -0.00    +0.000 N 
DOCKED: ATOM      9  H   UNL     1      21.560 -20.462  -1.249 -0.23 -0.00    +0.000 HD
DOCKED: BRANCH   8  10
DOCKED: ATOM     10  O   UNL     1      19.701 -20.014  -1.934 -1.62 -0.00    +0.000 OA
DOCKED: ATOM     11  H   UNL     1      19.135 -19.229  -1.889 -0.53 -0.00    +0.000 HD
DOCKED: ENDBRANCH   8  10
DOCKED: ENDBRANCH   5   7
DOCKED: ENDBRANCH   4   5
DOCKED: ENDBRANCH   3   4
DOCKED: ENDBRANCH   2   3
DOCKED: ENDBRANCH   1   2
DOCKED: BRANCH   1  12
DOCKED: ATOM     12  C   UNL     1      26.164 -15.250  -3.210 -0.51 -0.00    +0.000 C 
DOCKED: BRANCH  12  13
DOCKED: ATOM     13  C   UNL     1      26.964 -15.485  -4.459 -0.44 -0.00    +0.000 C 
DOCKED: ATOM     14  N   UNL     1      28.308 -15.983  -4.370 -0.31 -0.00    +0.000 N 
DOCKED: ATOM     15  O   UNL     1      26.447 -15.232  -5.581 -1.11 +0.00    +0.000 OA
DOCKED: ATOM     16  H   UNL     1      28.572 -16.454  -3.547 -0.02 -0.00    +0.000 HD
DOCKED: BRANCH  14  17
DOCKED: ATOM     17  C   UNL     1      29.292 -15.836  -5.408 -0.31 -0.00    +0.000 A 
DOCKED: ATOM     18  C   UNL     1      29.277 -14.692  -6.219 -0.31 -0.00    +0.000 A 
DOCKED: ATOM     19  C   UNL     1      30.206 -14.553  -7.251 -0.24 -0.00    +0.000 A 
DOCKED: ATOM     20  C   UNL     1      31.137 -15.567  -7.475 -0.23 -0.00    +0.000 A 
DOCKED: ATOM     21  N   UNL     1      31.128 -16.682  -6.698 -0.24 -0.00    +0.000 NA
DOCKED: ATOM     22  C   UNL     1      30.236 -16.841  -5.684 -0.29 -0.00    +0.000 A 
DOCKED: ENDBRANCH  14  17
DOCKED: ENDBRANCH  12  13
DOCKED: ENDBRANCH   1  12
DOCKED: TORSDOF 9
DOCKED: TER
DOCKED: ENDMDL
________________________________________________________________________________


	BEGINNING GENETIC ALGORITHM DOCKING 12 of 100
Run: 12 Seed: 2074277348 2068666807 [ Run 12 of 100 GA/GALS ]
Beginning LAMARCKIAN GENETIC ALGORITHM (LGA), with a maximum of 2500000 energy evaluations.

Final-Value: -14.977


	FINAL GENETIC ALGORITHM DOCKED STATE
	_______________________________________________


Detailed state:  trans 25.203 -14.394 -0.300 quatxyzw -0.517356 0.448309 0.718727 -0.121622 center -0.121 -0.193 0.463 ntor 9 -5.8329 136.3513 -9.0483 109.4058 -144.6002 38.1707 98.8112 61.1210 -15.6315
State:	 25.203 -14.394  -0.300  -0.521  0.452  0.724 -166.029     -5.83  136.35   -9.05  109.41 -144.60   38.17   98.81   61.12  -15.63

DOCKED: MODEL       12
DOCKED: USER    Run = 12
DOCKED: USER    DPF = ligand_dock.biased.dpf
DOCKED: USER  
DOCKED: USER    Estimated Free Energy of Binding    =  -11.04 kcal/mol  [=(1)+(2)+(3)-(4)]
DOCKED: USER    Estimated Inhibition Constant, Ki   =    8.09 nM (nanomolar)  [Temperature = 298.15 K]
DOCKED: USER    
DOCKED: USER    (1) Final Intermolecular Energy     =  -13.72 kcal/mol
DOCKED: USER        vdW + Hbond + desolv Energy     =  -13.72 kcal/mol
DOCKED: USER        Electrostatic Energy            =   +0.00 kcal/mol
DOCKED: USER    (2) Final Total Internal Energy     =   -1.25 kcal/mol
DOCKED: USER    (3) Torsional Free Energy           =   +2.68 kcal/mol
DOCKED: USER    (4) Unbound System's Energy  [=(2)] =   -1.25 kcal/mol
DOCKED: USER    
DOCKED: USER    
DOCKED: USER    NEWDPF move ligand.pdbqt
DOCKED: USER    NEWDPF about -0.121000 -0.193000 0.463000
DOCKED: USER    NEWDPF tran0 25.202679 -14.393577 -0.300294
DOCKED: USER    NEWDPF quaternion0 -0.517356 0.448309 0.718727 -0.121622
DOCKED: USER    NEWDPF axisangle0 -0.521226 0.451662 0.724103 -166.028604
DOCKED: USER    NEWDPF quat0 -0.521226 0.451662 0.724103 -166.028604
DOCKED: USER    NEWDPF dihe0 -5.83 136.35 -9.05 109.41 -144.60 38.17 98.81 61.12 -15.63 
DOCKED: USER  keepresnum = 1 
DOCKED: USER  
DOCKED: REMARK  Name = 
DOCKED: REMARK  9 active torsions:
DOCKED: REMARK  status: ('A' for Active; 'I' for Inactive)
DOCKED: REMARK    1  A    between atoms: C_2  and  C_5
DOCKED: REMARK    2  A    between atoms: N_3  and  O_4
DOCKED: REMARK    3  A    between atoms: C_5  and  C_6
DOCKED: REMARK    4  A    between atoms: C_6  and  C_7
DOCKED: REMARK    5  A    between atoms: C_7  and  C_8
DOCKED: REMARK    6  A    between atoms: C_8  and  C_9
DOCKED: REMARK    7  A    between atoms: C_9  and  C_10
DOCKED: REMARK    8  A    between atoms: C_10  and  C_11
DOCKED: REMARK    9  A    between atoms: N_12  and  C_13
DOCKED: REMARK                            x       y       z     vdW  Elec       q    Type
DOCKED: REMARK                         _______ _______ _______ _____ _____    ______ ____
DOCKED: USER                              x       y       z     vdW  Elec       q    Type
DOCKED: USER                           _______ _______ _______ _____ _____    ______ ____
DOCKED: ROOT
DOCKED: ATOM      1  C   UNL     1      27.308 -16.574  -1.365 -0.42 -0.00    +0.000 C 
DOCKED: ENDROOT
DOCKED: BRANCH   1   2
DOCKED: ATOM      2  C   UNL     1      25.803 -16.731  -1.095 -0.57 -0.00    +0.000 C 
DOCKED: BRANCH   2   3
DOCKED: ATOM      3  C   UNL     1      25.462 -18.174  -0.696 -0.68 -0.00    +0.000 C 
DOCKED: BRANCH   3   4
DOCKED: ATOM      4  C   UNL     1      24.060 -18.605  -1.161 -0.76 -0.00    +0.000 C 
DOCKED: BRANCH   4   5
DOCKED: ATOM      5  C   UNL     1      22.910 -18.081  -0.285 -0.81 -0.00    +0.000 C 
DOCKED: BRANCH   5   7
DOCKED: ATOM      6  O   UNL     1      20.624 -17.529  -0.707 -2.09 +0.00    +0.000 OA
DOCKED: ATOM      7  C   UNL     1      21.566 -18.344  -0.900 -0.79 -0.00    +0.000 C 
DOCKED: ATOM      8  N   UNL     1      21.343 -19.522  -1.680 -0.62 -0.00    +0.000 N 
DOCKED: ATOM      9  H   UNL     1      22.084 -20.152  -1.833 -0.47 -0.00    +0.000 HD
DOCKED: BRANCH   8  10
DOCKED: ATOM     10  O   UNL     1      20.123 -19.777  -2.209 -1.88 -0.00    +0.000 OA
DOCKED: ATOM     11  H   UNL     1      19.489 -19.115  -1.893 -0.32 -0.00    +0.000 HD
DOCKED: ENDBRANCH   8  10
DOCKED: ENDBRANCH   5   7
DOCKED: ENDBRANCH   4   5
DOCKED: ENDBRANCH   3   4
DOCKED: ENDBRANCH   2   3
DOCKED: ENDBRANCH   1   2
DOCKED: BRANCH   1  12
DOCKED: ATOM     12  C   UNL     1      28.111 -16.376  -0.072 -0.27 -0.00    +0.000 C 
DOCKED: BRANCH  12  13
DOCKED: ATOM     13  C   UNL     1      28.146 -14.931   0.335 -0.26 -0.00    +0.000 C 
DOCKED: ATOM     14  N   UNL     1      28.347 -14.576   1.712 -0.24 -0.00    +0.000 N 
DOCKED: ATOM     15  O   UNL     1      27.991 -14.038  -0.541 -0.17 -0.00    +0.000 OA
DOCKED: ATOM     16  H   UNL     1      28.766 -15.241   2.304 -1.81 -0.00    +0.000 HD
DOCKED: BRANCH  14  17
DOCKED: ATOM     17  C   UNL     1      27.974 -13.308   2.280 -0.25 -0.00    +0.000 A 
DOCKED: ATOM     18  C   UNL     1      28.522 -12.912   3.508 -0.24 -0.00    +0.000 A 
DOCKED: ATOM     19  C   UNL     1      28.144 -11.698   4.085 -0.27 +0.00    +0.000 A 
DOCKED: ATOM     20  C   UNL     1      27.206 -10.895   3.436 -0.22 +0.00    +0.000 A 
DOCKED: ATOM     21  N   UNL     1      26.663 -11.300   2.258 -0.33 +0.00    +0.000 NA
DOCKED: ATOM     22  C   UNL     1      27.017 -12.475   1.672 -0.27 -0.00    +0.000 A 
DOCKED: ENDBRANCH  14  17
DOCKED: ENDBRANCH  12  13
DOCKED: ENDBRANCH   1  12
DOCKED: TORSDOF 9
DOCKED: TER
DOCKED: ENDMDL
________________________________________________________________________________


	BEGINNING GENETIC ALGORITHM DOCKING 13 of 100
Run: 13 Seed: 769841570 830883902 [ Run 13 of 100 GA/GALS ]
Beginning LAMARCKIAN GENETIC ALGORITHM (LGA), with a maximum of 2500000 energy evaluations.

Final-Value: -14.204


	FINAL GENETIC ALGORITHM DOCKED STATE
	_______________________________________________


Detailed state:  trans 25.272 -14.624 -0.483 quatxyzw -0.351458 0.640943 0.681354 0.037759 center -0.121 -0.193 0.463 ntor 9 6.8462 -40.1408 179.5910 172.6268 151.6206 -31.8813 -6.2288 29.3542 11.1381
State:	 25.272 -14.624  -0.483  -0.352  0.641  0.682 175.672      6.85  -40.14  179.59  172.63  151.62  -31.88   -6.23   29.35   11.14

DOCKED: MODEL       13
DOCKED: USER    Run = 13
DOCKED: USER    DPF = ligand_dock.biased.dpf
DOCKED: USER  
DOCKED: USER    Estimated Free Energy of Binding    =  -10.22 kcal/mol  [=(1)+(2)+(3)-(4)]
DOCKED: USER    Estimated Inhibition Constant, Ki   =   32.19 nM (nanomolar)  [Temperature = 298.15 K]
DOCKED: USER    
DOCKED: USER    (1) Final Intermolecular Energy     =  -12.91 kcal/mol
DOCKED: USER        vdW + Hbond + desolv Energy     =  -12.91 kcal/mol
DOCKED: USER        Electrostatic Energy            =   +0.00 kcal/mol
DOCKED: USER    (2) Final Total Internal Energy     =   -1.30 kcal/mol
DOCKED: USER    (3) Torsional Free Energy           =   +2.68 kcal/mol
DOCKED: USER    (4) Unbound System's Energy  [=(2)] =   -1.30 kcal/mol
DOCKED: USER    
DOCKED: USER    
DOCKED: USER    NEWDPF move ligand.pdbqt
DOCKED: USER    NEWDPF about -0.121000 -0.193000 0.463000
DOCKED: USER    NEWDPF tran0 25.271600 -14.623596 -0.482592
DOCKED: USER    NEWDPF quaternion0 -0.351458 0.640943 0.681354 0.037759
DOCKED: USER    NEWDPF axisangle0 -0.351709 0.641401 0.681840 175.672140
DOCKED: USER    NEWDPF quat0 -0.351709 0.641401 0.681840 175.672140
DOCKED: USER    NEWDPF dihe0 6.85 -40.14 179.59 172.63 151.62 -31.88 -6.23 29.35 11.14 
DOCKED: USER  keepresnum = 1 
DOCKED: USER  
DOCKED: REMARK  Name = 
DOCKED: REMARK  9 active torsions:
DOCKED: REMARK  status: ('A' for Active; 'I' for Inactive)
DOCKED: REMARK    1  A    between atoms: C_2  and  C_5
DOCKED: REMARK    2  A    between atoms: N_3  and  O_4
DOCKED: REMARK    3  A    between atoms: C_5  and  C_6
DOCKED: REMARK    4  A    between atoms: C_6  and  C_7
DOCKED: REMARK    5  A    between atoms: C_7  and  C_8
DOCKED: REMARK    6  A    between atoms: C_8  and  C_9
DOCKED: REMARK    7  A    between atoms: C_9  and  C_10
DOCKED: REMARK    8  A    between atoms: C_10  and  C_11
DOCKED: REMARK    9  A    between atoms: N_12  and  C_13
DOCKED: REMARK                            x       y       z     vdW  Elec       q    Type
DOCKED: REMARK                         _______ _______ _______ _____ _____    ______ ____
DOCKED: USER                              x       y       z     vdW  Elec       q    Type
DOCKED: USER                           _______ _______ _______ _____ _____    ______ ____
DOCKED: ROOT
DOCKED: ATOM      1  C   UNL     1      26.692 -17.431  -1.130 -0.52 -0.00    +0.000 C 
DOCKED: ENDROOT
DOCKED: BRANCH   1   2
DOCKED: ATOM      2  C   UNL     1      25.416 -17.155  -0.320 -0.52 -0.00    +0.000 C 
DOCKED: BRANCH   2   3
DOCKED: ATOM      3  C   UNL     1      24.162 -17.516  -1.128 -0.74 -0.00    +0.000 C 
DOCKED: BRANCH   3   4
DOCKED: ATOM      4  C   UNL     1      23.059 -18.151  -0.262 -0.80 -0.00    +0.000 C 
DOCKED: BRANCH   4   5
DOCKED: ATOM      5  C   UNL     1      22.278 -19.280  -0.955 -0.76 -0.00    +0.000 C 
DOCKED: BRANCH   5   7
DOCKED: ATOM      6  O   UNL     1      20.355 -17.863  -1.045 -2.19 -0.00    +0.000 OA
DOCKED: ATOM      7  C   UNL     1      20.796 -19.039  -0.932 -0.89 -0.00    +0.000 C 
DOCKED: ATOM      8  N   UNL     1      19.886 -20.129  -0.759 -0.74 -0.00    +0.000 N 
DOCKED: ATOM      9  H   UNL     1      20.234 -21.046  -0.679 -0.34 -0.00    +0.000 HD
DOCKED: BRANCH   8  10
DOCKED: ATOM     10  O   UNL     1      18.551 -19.910  -0.707 -0.79 -0.00    +0.000 OA
DOCKED: ATOM     11  H   UNL     1      18.367 -18.980  -0.909 -0.60 -0.00    +0.000 HD
DOCKED: ENDBRANCH   8  10
DOCKED: ENDBRANCH   5   7
DOCKED: ENDBRANCH   4   5
DOCKED: ENDBRANCH   3   4
DOCKED: ENDBRANCH   2   3
DOCKED: ENDBRANCH   1   2
DOCKED: BRANCH   1  12
DOCKED: ATOM     12  C   UNL     1      27.952 -16.915  -0.421 -0.36 -0.00    +0.000 C 
DOCKED: BRANCH  12  13
DOCKED: ATOM     13  C   UNL     1      27.874 -15.436  -0.174 -0.29 -0.00    +0.000 C 
DOCKED: ATOM     14  N   UNL     1      28.004 -14.921   1.161 -0.26 -0.00    +0.000 N 
DOCKED: ATOM     15  O   UNL     1      27.687 -14.655  -1.146 -0.21 -0.00    +0.000 OA
DOCKED: ATOM     16  H   UNL     1      28.447 -15.487   1.833 -1.21 -0.00    +0.000 HD
DOCKED: BRANCH  14  17
DOCKED: ATOM     17  C   UNL     1      27.526 -13.630   1.577 -0.26 -0.00    +0.000 A 
DOCKED: ATOM     18  C   UNL     1      26.460 -13.033   0.889 -0.30 -0.00    +0.000 A 
DOCKED: ATOM     19  C   UNL     1      26.008 -11.766   1.262 -0.34 +0.00    +0.000 A 
DOCKED: ATOM     20  C   UNL     1      26.636 -11.097   2.313 -0.31 +0.00    +0.000 A 
DOCKED: ATOM     21  N   UNL     1      27.684 -11.675   2.957 -0.24 +0.00    +0.000 NA
DOCKED: ATOM     22  C   UNL     1      28.142 -12.909   2.616 -0.23 -0.00    +0.000 A 
DOCKED: ENDBRANCH  14  17
DOCKED: ENDBRANCH  12  13
DOCKED: ENDBRANCH   1  12
DOCKED: TORSDOF 9
DOCKED: TER
DOCKED: ENDMDL
________________________________________________________________________________


	BEGINNING GENETIC ALGORITHM DOCKING 14 of 100
Run: 14 Seed: 293828106 1272983495 [ Run 14 of 100 GA/GALS ]
Beginning LAMARCKIAN GENETIC ALGORITHM (LGA), with a maximum of 2500000 energy evaluations.

Final-Value: -13.561


	FINAL GENETIC ALGORITHM DOCKED STATE
	_______________________________________________


Detailed state:  trans 24.231 -17.101 -2.394 quatxyzw -0.662791 0.661275 0.307873 0.169228 center -0.121 -0.193 0.463 ntor 9 -6.2299 -97.0481 152.2229 -179.5199 -102.7065 49.9709 -122.5803 -42.9859 -45.9081
State:	 24.231 -17.101  -2.394  -0.672  0.671  0.312 160.514     -6.23  -97.05  152.22 -179.52 -102.71   49.97 -122.58  -42.99  -45.91

DOCKED: MODEL       14
DOCKED: USER    Run = 14
DOCKED: USER    DPF = ligand_dock.biased.dpf
DOCKED: USER  
DOCKED: USER    Estimated Free Energy of Binding    =   -9.51 kcal/mol  [=(1)+(2)+(3)-(4)]
DOCKED: USER    Estimated Inhibition Constant, Ki   =  107.14 nM (nanomolar)  [Temperature = 298.15 K]
DOCKED: USER    
DOCKED: USER    (1) Final Intermolecular Energy     =  -12.19 kcal/mol
DOCKED: USER        vdW + Hbond + desolv Energy     =  -12.19 kcal/mol
DOCKED: USER        Electrostatic Energy            =   +0.00 kcal/mol
DOCKED: USER    (2) Final Total Internal Energy     =   -1.37 kcal/mol
DOCKED: USER    (3) Torsional Free Energy           =   +2.68 kcal/mol
DOCKED: USER    (4) Unbound System's Energy  [=(2)] =   -1.37 kcal/mol
DOCKED: USER    
DOCKED: USER    
DOCKED: USER    NEWDPF move ligand.pdbqt
DOCKED: USER    NEWDPF about -0.121000 -0.193000 0.463000
DOCKED: USER    NEWDPF tran0 24.231226 -17.100751 -2.394267
DOCKED: USER    NEWDPF quaternion0 -0.662791 0.661275 0.307873 0.169228
DOCKED: USER    NEWDPF axisangle0 -0.672490 0.670952 0.312379 160.514161
DOCKED: USER    NEWDPF quat0 -0.672490 0.670952 0.312379 160.514161
DOCKED: USER    NEWDPF dihe0 -6.23 -97.05 152.22 -179.52 -102.71 49.97 -122.58 -42.99 -45.91 
DOCKED: USER  keepresnum = 1 
DOCKED: USER  
DOCKED: REMARK  Name = 
DOCKED: REMARK  9 active torsions:
DOCKED: REMARK  status: ('A' for Active; 'I' for Inactive)
DOCKED: REMARK    1  A    between atoms: C_2  and  C_5
DOCKED: REMARK    2  A    between atoms: N_3  and  O_4
DOCKED: REMARK    3  A    between atoms: C_5  and  C_6
DOCKED: REMARK    4  A    between atoms: C_6  and  C_7
DOCKED: REMARK    5  A    between atoms: C_7  and  C_8
DOCKED: REMARK    6  A    between atoms: C_8  and  C_9
DOCKED: REMARK    7  A    between atoms: C_9  and  C_10
DOCKED: REMARK    8  A    between atoms: C_10  and  C_11
DOCKED: REMARK    9  A    between atoms: N_12  and  C_13
DOCKED: REMARK                            x       y       z     vdW  Elec       q    Type
DOCKED: REMARK                         _______ _______ _______ _____ _____    ______ ____
DOCKED: USER                              x       y       z     vdW  Elec       q    Type
DOCKED: USER                           _______ _______ _______ _____ _____    ______ ____
DOCKED: ROOT
DOCKED: ATOM      1  C   UNL     1      26.646 -18.230  -0.603 -0.54 -0.00    +0.000 C 
DOCKED: ENDROOT
DOCKED: BRANCH   1   2
DOCKED: ATOM      2  C   UNL     1      25.159 -18.616  -0.579 -0.62 -0.00    +0.000 C 
DOCKED: BRANCH   2   3
DOCKED: ATOM      3  C   UNL     1      24.318 -17.618  -1.387 -0.73 -0.00    +0.000 C 
DOCKED: BRANCH   3   4
DOCKED: ATOM      4  C   UNL     1      23.018 -17.215  -0.668 -0.72 -0.00    +0.000 C 
DOCKED: BRANCH   4   5
DOCKED: ATOM      5  C   UNL     1      22.350 -18.353   0.122 -0.75 -0.00    +0.000 C 
DOCKED: BRANCH   5   7
DOCKED: ATOM      6  O   UNL     1      20.356 -17.818  -1.082 -2.17 -0.00    +0.000 OA
DOCKED: ATOM      7  C   UNL     1      20.980 -18.675  -0.400 -0.74 -0.00    +0.000 C 
DOCKED: ATOM      8  N   UNL     1      20.371 -19.935  -0.108 -0.74 -0.00    +0.000 N 
DOCKED: ATOM      9  H   UNL     1      20.863 -20.605   0.419 -0.34 -0.00    +0.000 HD
DOCKED: BRANCH   8  10
DOCKED: ATOM     10  O   UNL     1      19.122 -20.216  -0.552 -0.87 -0.00    +0.000 OA
DOCKED: ATOM     11  H   UNL     1      18.741 -19.427  -0.966 -0.47 -0.00    +0.000 HD
DOCKED: ENDBRANCH   8  10
DOCKED: ENDBRANCH   5   7
DOCKED: ENDBRANCH   4   5
DOCKED: ENDBRANCH   3   4
DOCKED: ENDBRANCH   2   3
DOCKED: ENDBRANCH   1   2
DOCKED: BRANCH   1  12
DOCKED: ATOM     12  C   UNL     1      26.883 -16.803  -0.088 -0.45 -0.00    +0.000 C 
DOCKED: BRANCH  12  13
DOCKED: ATOM     13  C   UNL     1      27.436 -15.917  -1.167 -0.35 -0.00    +0.000 C 
DOCKED: ATOM     14  N   UNL     1      26.789 -15.852  -2.447 -0.35 -0.00    +0.000 N 
DOCKED: ATOM     15  O   UNL     1      28.475 -15.240  -0.938 -0.19 -0.00    +0.000 OA
DOCKED: ATOM     16  H   UNL     1      25.845 -16.125  -2.502 -0.02 -0.00    +0.000 HD
DOCKED: BRANCH  14  17
DOCKED: ATOM     17  C   UNL     1      27.434 -15.412  -3.655 -0.32 -0.00    +0.000 A 
DOCKED: ATOM     18  C   UNL     1      28.769 -14.985  -3.610 -0.18 -0.00    +0.000 A 
DOCKED: ATOM     19  C   UNL     1      29.397 -14.525  -4.768 -0.16 -0.00    +0.000 A 
DOCKED: ATOM     20  C   UNL     1      28.679 -14.481  -5.964 -0.33 -0.00    +0.000 A 
DOCKED: ATOM     21  N   UNL     1      27.378 -14.873  -5.991 -0.72 +0.00    +0.000 NA
DOCKED: ATOM     22  C   UNL     1      26.744 -15.329  -4.878 -0.45 -0.00    +0.000 A 
DOCKED: ENDBRANCH  14  17
DOCKED: ENDBRANCH  12  13
DOCKED: ENDBRANCH   1  12
DOCKED: TORSDOF 9
DOCKED: TER
DOCKED: ENDMDL
________________________________________________________________________________


	BEGINNING GENETIC ALGORITHM DOCKING 15 of 100
Run: 15 Seed: 1316805302 345221720 [ Run 15 of 100 GA/GALS ]
Beginning LAMARCKIAN GENETIC ALGORITHM (LGA), with a maximum of 2500000 energy evaluations.

Final-Value: -14.020


	FINAL GENETIC ALGORITHM DOCKED STATE
	_______________________________________________


Detailed state:  trans 23.858 -14.138 -0.716 quatxyzw 0.060901 -0.403838 -0.636984 -0.653803 center -0.121 -0.193 0.463 ntor 9 10.1297 174.8503 179.9832 92.8257 176.5234 150.8996 9.0618 179.9527 179.9198
State:	 23.858 -14.138  -0.716   0.080 -0.534 -0.842 -98.342     10.13  174.85  179.98   92.83  176.52  150.90    9.06  179.95  179.92

DOCKED: MODEL       15
DOCKED: USER    Run = 15
DOCKED: USER    DPF = ligand_dock.biased.dpf
DOCKED: USER  
DOCKED: USER    Estimated Free Energy of Binding    =  -10.06 kcal/mol  [=(1)+(2)+(3)-(4)]
DOCKED: USER    Estimated Inhibition Constant, Ki   =   42.52 nM (nanomolar)  [Temperature = 298.15 K]
DOCKED: USER    
DOCKED: USER    (1) Final Intermolecular Energy     =  -12.74 kcal/mol
DOCKED: USER        vdW + Hbond + desolv Energy     =  -12.74 kcal/mol
DOCKED: USER        Electrostatic Energy            =   +0.00 kcal/mol
DOCKED: USER    (2) Final Total Internal Energy     =   -1.28 kcal/mol
DOCKED: USER    (3) Torsional Free Energy           =   +2.68 kcal/mol
DOCKED: USER    (4) Unbound System's Energy  [=(2)] =   -1.28 kcal/mol
DOCKED: USER    
DOCKED: USER    
DOCKED: USER    NEWDPF move ligand.pdbqt
DOCKED: USER    NEWDPF about -0.121000 -0.193000 0.463000
DOCKED: USER    NEWDPF tran0 23.858433 -14.138112 -0.716153
DOCKED: USER    NEWDPF quaternion0 0.060901 -0.403838 -0.636984 -0.653803
DOCKED: USER    NEWDPF axisangle0 0.080487 -0.533708 -0.841830 -98.342172
DOCKED: USER    NEWDPF quat0 0.080487 -0.533708 -0.841830 -98.342172
DOCKED: USER    NEWDPF dihe0 10.13 174.85 179.98 92.83 176.52 150.90 9.06 179.95 179.92 
DOCKED: USER  keepresnum = 1 
DOCKED: USER  
DOCKED: REMARK  Name = 
DOCKED: REMARK  9 active torsions:
DOCKED: REMARK  status: ('A' for Active; 'I' for Inactive)
DOCKED: REMARK    1  A    between atoms: C_2  and  C_5
DOCKED: REMARK    2  A    between atoms: N_3  and  O_4
DOCKED: REMARK    3  A    between atoms: C_5  and  C_6
DOCKED: REMARK    4  A    between atoms: C_6  and  C_7
DOCKED: REMARK    5  A    between atoms: C_7  and  C_8
DOCKED: REMARK    6  A    between atoms: C_8  and  C_9
DOCKED: REMARK    7  A    between atoms: C_9  and  C_10
DOCKED: REMARK    8  A    between atoms: C_10  and  C_11
DOCKED: REMARK    9  A    between atoms: N_12  and  C_13
DOCKED: REMARK                            x       y       z     vdW  Elec       q    Type
DOCKED: REMARK                         _______ _______ _______ _____ _____    ______ ____
DOCKED: USER                              x       y       z     vdW  Elec       q    Type
DOCKED: USER                           _______ _______ _______ _____ _____    ______ ____
DOCKED: ROOT
DOCKED: ATOM      1  C   UNL     1      25.124 -16.146  -2.880 -0.39 -0.00    +0.000 C 
DOCKED: ENDROOT
DOCKED: BRANCH   1   2
DOCKED: ATOM      2  C   UNL     1      25.477 -15.975  -1.394 -0.53 -0.00    +0.000 C 
DOCKED: BRANCH   2   3
DOCKED: ATOM      3  C   UNL     1      25.240 -17.279  -0.619 -0.63 -0.00    +0.000 C 
DOCKED: BRANCH   3   4
DOCKED: ATOM      4  C   UNL     1      24.027 -18.069  -1.139 -0.78 -0.00    +0.000 C 
DOCKED: BRANCH   4   5
DOCKED: ATOM      5  C   UNL     1      22.895 -18.245  -0.114 -0.79 -0.00    +0.000 C 
DOCKED: BRANCH   5   7
DOCKED: ATOM      6  O   UNL     1      20.699 -17.521  -0.717 -2.11 +0.00    +0.000 OA
DOCKED: ATOM      7  C   UNL     1      21.560 -18.439  -0.773 -0.84 -0.00    +0.000 C 
DOCKED: ATOM      8  N   UNL     1      21.253 -19.666  -1.441 -0.67 -0.00    +0.000 N 
DOCKED: ATOM      9  H   UNL     1      21.931 -20.378  -1.489 -0.30 -0.00    +0.000 HD
DOCKED: BRANCH   8  10
DOCKED: ATOM     10  O   UNL     1      20.038 -19.855  -2.010 -1.85 -0.00    +0.000 OA
DOCKED: ATOM     11  H   UNL     1      19.551 -19.017  -2.019 -0.28 -0.00    +0.000 HD
DOCKED: ENDBRANCH   8  10
DOCKED: ENDBRANCH   5   7
DOCKED: ENDBRANCH   4   5
DOCKED: ENDBRANCH   3   4
DOCKED: ENDBRANCH   2   3
DOCKED: ENDBRANCH   1   2
DOCKED: BRANCH   1  12
DOCKED: ATOM     12  C   UNL     1      25.535 -14.927  -3.717 -0.58 -0.00    +0.000 C 
DOCKED: BRANCH  12  13
DOCKED: ATOM     13  C   UNL     1      26.690 -15.247  -4.622 -0.54 -0.00    +0.000 C 
DOCKED: ATOM     14  N   UNL     1      28.037 -15.132  -4.136 -0.28 -0.00    +0.000 N 
DOCKED: ATOM     15  O   UNL     1      26.465 -15.607  -5.808 -1.04 +0.00    +0.000 OA
DOCKED: ATOM     16  H   UNL     1      28.181 -15.158  -3.163 +0.00 -0.00    +0.000 HD
DOCKED: BRANCH  14  17
DOCKED: ATOM     17  C   UNL     1      29.189 -14.982  -4.984 -0.24 -0.00    +0.000 A 
DOCKED: ATOM     18  C   UNL     1      29.044 -14.401  -6.252 -0.31 -0.00    +0.000 A 
DOCKED: ATOM     19  C   UNL     1      30.147 -14.279  -7.097 -0.24 -0.00    +0.000 A 
DOCKED: ATOM     20  C   UNL     1      31.389 -14.754  -6.674 -0.14 -0.00    +0.000 A 
DOCKED: ATOM     21  N   UNL     1      31.514 -15.338  -5.453 -0.08 -0.00    +0.000 NA
DOCKED: ATOM     22  C   UNL     1      30.455 -15.466  -4.609 -0.13 -0.00    +0.000 A 
DOCKED: ENDBRANCH  14  17
DOCKED: ENDBRANCH  12  13
DOCKED: ENDBRANCH   1  12
DOCKED: TORSDOF 9
DOCKED: TER
DOCKED: ENDMDL
________________________________________________________________________________


	BEGINNING GENETIC ALGORITHM DOCKING 16 of 100
Run: 16 Seed: 1591969460 1395721307 [ Run 16 of 100 GA/GALS ]
Beginning LAMARCKIAN GENETIC ALGORITHM (LGA), with a maximum of 2500000 energy evaluations.

Final-Value: -14.181


	FINAL GENETIC ALGORITHM DOCKED STATE
	_______________________________________________


Detailed state:  trans 25.230 -14.835 1.199 quatxyzw -0.342274 0.333374 0.878223 0.020867 center -0.121 -0.193 0.463 ntor 9 27.7780 -53.0245 -85.5069 135.8928 124.8903 35.6444 40.1985 50.3037 -4.2808
State:	 25.230 -14.835   1.199  -0.342  0.333  0.878 177.609     27.78  -53.02  -85.51  135.89  124.89   35.64   40.20   50.30   -4.28

DOCKED: MODEL       16
DOCKED: USER    Run = 16
DOCKED: USER    DPF = ligand_dock.biased.dpf
DOCKED: USER  
DOCKED: USER    Estimated Free Energy of Binding    =  -10.39 kcal/mol  [=(1)+(2)+(3)-(4)]
DOCKED: USER    Estimated Inhibition Constant, Ki   =   24.16 nM (nanomolar)  [Temperature = 298.15 K]
DOCKED: USER    
DOCKED: USER    (1) Final Intermolecular Energy     =  -13.08 kcal/mol
DOCKED: USER        vdW + Hbond + desolv Energy     =  -13.08 kcal/mol
DOCKED: USER        Electrostatic Energy            =   +0.00 kcal/mol
DOCKED: USER    (2) Final Total Internal Energy     =   -1.11 kcal/mol
DOCKED: USER    (3) Torsional Free Energy           =   +2.68 kcal/mol
DOCKED: USER    (4) Unbound System's Energy  [=(2)] =   -1.11 kcal/mol
DOCKED: USER    
DOCKED: USER    
DOCKED: USER    NEWDPF move ligand.pdbqt
DOCKED: USER    NEWDPF about -0.121000 -0.193000 0.463000
DOCKED: USER    NEWDPF tran0 25.229718 -14.835404 1.199040
DOCKED: USER    NEWDPF quaternion0 -0.342274 0.333374 0.878223 0.020867
DOCKED: USER    NEWDPF axisangle0 -0.342349 0.333446 0.878414 177.608623
DOCKED: USER    NEWDPF quat0 -0.342349 0.333446 0.878414 177.608623
DOCKED: USER    NEWDPF dihe0 27.78 -53.02 -85.51 135.89 124.89 35.64 40.20 50.30 -4.28 
DOCKED: USER  keepresnum = 1 
DOCKED: USER  
DOCKED: REMARK  Name = 
DOCKED: REMARK  9 active torsions:
DOCKED: REMARK  status: ('A' for Active; 'I' for Inactive)
DOCKED: REMARK    1  A    between atoms: C_2  and  C_5
DOCKED: REMARK    2  A    between atoms: N_3  and  O_4
DOCKED: REMARK    3  A    between atoms: C_5  and  C_6
DOCKED: REMARK    4  A    between atoms: C_6  and  C_7
DOCKED: REMARK    5  A    between atoms: C_7  and  C_8
DOCKED: REMARK    6  A    between atoms: C_8  and  C_9
DOCKED: REMARK    7  A    between atoms: C_9  and  C_10
DOCKED: REMARK    8  A    between atoms: C_10  and  C_11
DOCKED: REMARK    9  A    between atoms: N_12  and  C_13
DOCKED: REMARK                            x       y       z     vdW  Elec       q    Type
DOCKED: REMARK                         _______ _______ _______ _____ _____    ______ ____
DOCKED: USER                              x       y       z     vdW  Elec       q    Type
DOCKED: USER                           _______ _______ _______ _____ _____    ______ ____
DOCKED: ROOT
DOCKED: ATOM      1  C   UNL     1      26.776 -16.250  -1.235 -0.44 -0.00    +0.000 C 
DOCKED: ENDROOT
DOCKED: BRANCH   1   2
DOCKED: ATOM      2  C   UNL     1      25.665 -16.813  -0.335 -0.45 -0.00    +0.000 C 
DOCKED: BRANCH   2   3
DOCKED: ATOM      3  C   UNL     1      24.821 -17.853  -1.086 -0.73 -0.00    +0.000 C 
DOCKED: BRANCH   3   4
DOCKED: ATOM      4  C   UNL     1      23.366 -17.912  -0.588 -0.80 -0.00    +0.000 C 
DOCKED: BRANCH   4   5
DOCKED: ATOM      5  C   UNL     1      22.559 -19.108  -1.120 -0.78 -0.00    +0.000 C 
DOCKED: BRANCH   5   7
DOCKED: ATOM      6  O   UNL     1      20.618 -17.739  -0.862 -2.22 -0.00    +0.000 OA
DOCKED: ATOM      7  C   UNL     1      21.080 -18.907  -0.962 -0.86 -0.00    +0.000 C 
DOCKED: ATOM      8  N   UNL     1      20.198 -20.031  -0.899 -0.77 -0.00    +0.000 N 
DOCKED: ATOM      9  H   UNL     1      20.563 -20.942  -0.983 -0.24 -0.00    +0.000 HD
DOCKED: BRANCH   8  10
DOCKED: ATOM     10  O   UNL     1      18.867 -19.854  -0.724 -0.95 -0.00    +0.000 OA
DOCKED: ATOM     11  H   UNL     1      18.606 -18.993  -1.085 -0.60 -0.00    +0.000 HD
DOCKED: ENDBRANCH   8  10
DOCKED: ENDBRANCH   5   7
DOCKED: ENDBRANCH   4   5
DOCKED: ENDBRANCH   3   4
DOCKED: ENDBRANCH   2   3
DOCKED: ENDBRANCH   1   2
DOCKED: BRANCH   1  12
DOCKED: ATOM     12  C   UNL     1      28.091 -16.043  -0.472 -0.32 -0.00    +0.000 C 
DOCKED: BRANCH  12  13
DOCKED: ATOM     13  C   UNL     1      28.018 -14.844   0.429 -0.27 -0.00    +0.000 C 
DOCKED: ATOM     14  N   UNL     1      28.683 -14.860   1.703 -0.11 -0.00    +0.000 N 
DOCKED: ATOM     15  O   UNL     1      27.364 -13.832   0.060 -0.25 -0.00    +0.000 OA
DOCKED: ATOM     16  H   UNL     1      29.417 -15.501   1.832 -1.44 -0.00    +0.000 HD
DOCKED: BRANCH  14  17
DOCKED: ATOM     17  C   UNL     1      28.340 -13.997   2.800 -0.29 -0.00    +0.000 A 
DOCKED: ATOM     18  C   UNL     1      27.941 -14.556   4.022 -0.48 -0.00    +0.000 A 
DOCKED: ATOM     19  C   UNL     1      27.574 -13.729   5.085 -0.42 -0.00    +0.000 A 
DOCKED: ATOM     20  C   UNL     1      27.596 -12.345   4.914 -0.22 +0.00    +0.000 A 
DOCKED: ATOM     21  N   UNL     1      27.961 -11.813   3.717 -0.26 +0.00    +0.000 NA
DOCKED: ATOM     22  C   UNL     1      28.326 -12.596   2.667 -0.19 -0.00    +0.000 A 
DOCKED: ENDBRANCH  14  17
DOCKED: ENDBRANCH  12  13
DOCKED: ENDBRANCH   1  12
DOCKED: TORSDOF 9
DOCKED: TER
DOCKED: ENDMDL
________________________________________________________________________________


	BEGINNING GENETIC ALGORITHM DOCKING 17 of 100
Run: 17 Seed: 939083287 1679015161 [ Run 17 of 100 GA/GALS ]
Beginning LAMARCKIAN GENETIC ALGORITHM (LGA), with a maximum of 2500000 energy evaluations.

Final-Value: -13.388


	FINAL GENETIC ALGORITHM DOCKED STATE
	_______________________________________________


Detailed state:  trans 25.393 -18.098 -0.029 quatxyzw 0.204981 0.382918 -0.893492 -0.114139 center -0.121 -0.193 0.463 ntor 9 -17.7483 172.5599 -179.8006 72.0865 179.7746 -40.6387 -102.2169 -170.9523 -56.7346
State:	 25.393 -18.098  -0.029   0.206  0.385 -0.899 -166.892    -17.75  172.56 -179.80   72.09  179.77  -40.64 -102.22 -170.95  -56.73

DOCKED: MODEL       17
DOCKED: USER    Run = 17
DOCKED: USER    DPF = ligand_dock.biased.dpf
DOCKED: USER  
DOCKED: USER    Estimated Free Energy of Binding    =   -9.43 kcal/mol  [=(1)+(2)+(3)-(4)]
DOCKED: USER    Estimated Inhibition Constant, Ki   =  123.36 nM (nanomolar)  [Temperature = 298.15 K]
DOCKED: USER    
DOCKED: USER    (1) Final Intermolecular Energy     =  -12.11 kcal/mol
DOCKED: USER        vdW + Hbond + desolv Energy     =  -12.11 kcal/mol
DOCKED: USER        Electrostatic Energy            =   +0.00 kcal/mol
DOCKED: USER    (2) Final Total Internal Energy     =   -1.28 kcal/mol
DOCKED: USER    (3) Torsional Free Energy           =   +2.68 kcal/mol
DOCKED: USER    (4) Unbound System's Energy  [=(2)] =   -1.28 kcal/mol
DOCKED: USER    
DOCKED: USER    
DOCKED: USER    NEWDPF move ligand.pdbqt
DOCKED: USER    NEWDPF about -0.121000 -0.193000 0.463000
DOCKED: USER    NEWDPF tran0 25.392701 -18.098353 -0.029470
DOCKED: USER    NEWDPF quaternion0 0.204981 0.382918 -0.893492 -0.114139
DOCKED: USER    NEWDPF axisangle0 0.206330 0.385437 -0.899370 -166.892015
DOCKED: USER    NEWDPF quat0 0.206330 0.385437 -0.899370 -166.892015
DOCKED: USER    NEWDPF dihe0 -17.75 172.56 -179.80 72.09 179.77 -40.64 -102.22 -170.95 -56.73 
DOCKED: USER  keepresnum = 1 
DOCKED: USER  
DOCKED: REMARK  Name = 
DOCKED: REMARK  9 active torsions:
DOCKED: REMARK  status: ('A' for Active; 'I' for Inactive)
DOCKED: REMARK    1  A    between atoms: C_2  and  C_5
DOCKED: REMARK    2  A    between atoms: N_3  and  O_4
DOCKED: REMARK    3  A    between atoms: C_5  and  C_6
DOCKED: REMARK    4  A    between atoms: C_6  and  C_7
DOCKED: REMARK    5  A    between atoms: C_7  and  C_8
DOCKED: REMARK    6  A    between atoms: C_8  and  C_9
DOCKED: REMARK    7  A    between atoms: C_9  and  C_10
DOCKED: REMARK    8  A    between atoms: C_10  and  C_11
DOCKED: REMARK    9  A    between atoms: N_12  and  C_13
DOCKED: REMARK                            x       y       z     vdW  Elec       q    Type
DOCKED: REMARK                         _______ _______ _______ _____ _____    ______ ____
DOCKED: USER                              x       y       z     vdW  Elec       q    Type
DOCKED: USER                           _______ _______ _______ _____ _____    ______ ____
DOCKED: ROOT
DOCKED: ATOM      1  C   UNL     1      25.462 -15.427  -1.812 -0.44 -0.00    +0.000 C 
DOCKED: ENDROOT
DOCKED: BRANCH   1   2
DOCKED: ATOM      2  C   UNL     1      25.235 -16.881  -2.254 -0.58 -0.00    +0.000 C 
DOCKED: BRANCH   2   3
DOCKED: ATOM      3  C   UNL     1      25.085 -17.809  -1.040 -0.70 -0.00    +0.000 C 
DOCKED: BRANCH   3   4
DOCKED: ATOM      4  C   UNL     1      23.890 -18.770  -1.169 -0.74 -0.00    +0.000 C 
DOCKED: BRANCH   4   5
DOCKED: ATOM      5  C   UNL     1      22.768 -18.531  -0.145 -0.79 -0.00    +0.000 C 
DOCKED: BRANCH   5   7
DOCKED: ATOM      6  O   UNL     1      20.753 -17.455  -0.846 -2.04 -0.00    +0.000 OA
DOCKED: ATOM      7  C   UNL     1      21.410 -18.529  -0.784 -0.84 -0.00    +0.000 C 
DOCKED: ATOM      8  N   UNL     1      20.849 -19.739  -1.300 -0.78 -0.00    +0.000 N 
DOCKED: ATOM      9  H   UNL     1      21.368 -20.574  -1.256 -0.16 -0.00    +0.000 HD
DOCKED: BRANCH   8  10
DOCKED: ATOM     10  O   UNL     1      19.611 -19.746  -1.849 -1.72 -0.00    +0.000 OA
DOCKED: ATOM     11  H   UNL     1      19.132 -18.949  -1.575 -0.56 -0.00    +0.000 HD
DOCKED: ENDBRANCH   8  10
DOCKED: ENDBRANCH   5   7
DOCKED: ENDBRANCH   4   5
DOCKED: ENDBRANCH   3   4
DOCKED: ENDBRANCH   2   3
DOCKED: ENDBRANCH   1   2
DOCKED: BRANCH   1  12
DOCKED: ATOM     12  C   UNL     1      26.898 -15.185  -1.328 -0.34 -0.00    +0.000 C 
DOCKED: BRANCH  12  13
DOCKED: ATOM     13  C   UNL     1      26.917 -14.564   0.039 -0.32 -0.00    +0.000 C 
DOCKED: ATOM     14  N   UNL     1      26.633 -13.165   0.199 -0.27 -0.00    +0.000 N 
DOCKED: ATOM     15  O   UNL     1      27.194 -15.280   1.039 -0.27 -0.00    +0.000 OA
DOCKED: ATOM     16  H   UNL     1      26.131 -12.713  -0.516 -0.01 -0.00    +0.000 HD
DOCKED: BRANCH  14  17
DOCKED: ATOM     17  C   UNL     1      27.036 -12.386   1.338 -0.26 -0.00    +0.000 A 
DOCKED: ATOM     18  C   UNL     1      28.166 -12.770   2.074 -0.19 -0.00    +0.000 A 
DOCKED: ATOM     19  C   UNL     1      28.549 -12.041   3.201 -0.17 -0.00    +0.000 A 
DOCKED: ATOM     20  C   UNL     1      27.790 -10.939   3.593 -0.26 +0.00    +0.000 A 
DOCKED: ATOM     21  N   UNL     1      26.682 -10.590   2.887 -0.32 +0.00    +0.000 NA
DOCKED: ATOM     22  C   UNL     1      26.290 -11.281   1.783 -0.34 +0.00    +0.000 A 
DOCKED: ENDBRANCH  14  17
DOCKED: ENDBRANCH  12  13
DOCKED: ENDBRANCH   1  12
DOCKED: TORSDOF 9
DOCKED: TER
DOCKED: ENDMDL
________________________________________________________________________________


	BEGINNING GENETIC ALGORITHM DOCKING 18 of 100
Run: 18 Seed: 1117771332 1680591577 [ Run 18 of 100 GA/GALS ]
Beginning LAMARCKIAN GENETIC ALGORITHM (LGA), with a maximum of 2500000 energy evaluations.

Final-Value: -13.647


	FINAL GENETIC ALGORITHM DOCKED STATE
	_______________________________________________


Detailed state:  trans 23.924 -16.468 -2.811 quatxyzw 0.785009 0.444793 -0.200903 0.381522 center -0.121 -0.193 0.463 ntor 9 -15.3643 -140.9067 -39.5777 -0.8211 42.3500 -40.1082 -40.2557 161.6247 -6.0979
State:	 23.924 -16.468  -2.811   0.849  0.481 -0.217 135.144    -15.36 -140.91  -39.58   -0.82   42.35  -40.11  -40.26  161.62   -6.10

DOCKED: MODEL       18
DOCKED: USER    Run = 18
DOCKED: USER    DPF = ligand_dock.biased.dpf
DOCKED: USER  
DOCKED: USER    Estimated Free Energy of Binding    =   -9.77 kcal/mol  [=(1)+(2)+(3)-(4)]
DOCKED: USER    Estimated Inhibition Constant, Ki   =   68.45 nM (nanomolar)  [Temperature = 298.15 K]
DOCKED: USER    
DOCKED: USER    (1) Final Intermolecular Energy     =  -12.46 kcal/mol
DOCKED: USER        vdW + Hbond + desolv Energy     =  -12.46 kcal/mol
DOCKED: USER        Electrostatic Energy            =   +0.00 kcal/mol
DOCKED: USER    (2) Final Total Internal Energy     =   -1.19 kcal/mol
DOCKED: USER    (3) Torsional Free Energy           =   +2.68 kcal/mol
DOCKED: USER    (4) Unbound System's Energy  [=(2)] =   -1.19 kcal/mol
DOCKED: USER    
DOCKED: USER    
DOCKED: USER    NEWDPF move ligand.pdbqt
DOCKED: USER    NEWDPF about -0.121000 -0.193000 0.463000
DOCKED: USER    NEWDPF tran0 23.924046 -16.467813 -2.811323
DOCKED: USER    NEWDPF quaternion0 0.785009 0.444793 -0.200903 0.381522
DOCKED: USER    NEWDPF axisangle0 0.849246 0.481190 -0.217343 135.144072
DOCKED: USER    NEWDPF quat0 0.849246 0.481190 -0.217343 135.144072
DOCKED: USER    NEWDPF dihe0 -15.36 -140.91 -39.58 -0.82 42.35 -40.11 -40.26 161.62 -6.10 
DOCKED: USER  keepresnum = 1 
DOCKED: USER  
DOCKED: REMARK  Name = 
DOCKED: REMARK  9 active torsions:
DOCKED: REMARK  status: ('A' for Active; 'I' for Inactive)
DOCKED: REMARK    1  A    between atoms: C_2  and  C_5
DOCKED: REMARK    2  A    between atoms: N_3  and  O_4
DOCKED: REMARK    3  A    between atoms: C_5  and  C_6
DOCKED: REMARK    4  A    between atoms: C_6  and  C_7
DOCKED: REMARK    5  A    between atoms: C_7  and  C_8
DOCKED: REMARK    6  A    between atoms: C_8  and  C_9
DOCKED: REMARK    7  A    between atoms: C_9  and  C_10
DOCKED: REMARK    8  A    between atoms: C_10  and  C_11
DOCKED: REMARK    9  A    between atoms: N_12  and  C_13
DOCKED: REMARK                            x       y       z     vdW  Elec       q    Type
DOCKED: REMARK                         _______ _______ _______ _____ _____    ______ ____
DOCKED: USER                              x       y       z     vdW  Elec       q    Type
DOCKED: USER                           _______ _______ _______ _____ _____    ______ ____
DOCKED: ROOT
DOCKED: ATOM      1  C   UNL     1      25.910 -17.028  -0.349 -0.54 -0.00    +0.000 C 
DOCKED: ENDROOT
DOCKED: BRANCH   1   2
DOCKED: ATOM      2  C   UNL     1      26.247 -16.642  -1.798 -0.51 -0.00    +0.000 C 
DOCKED: BRANCH   2   3
DOCKED: ATOM      3  C   UNL     1      25.844 -15.190  -2.090 -0.45 -0.00    +0.000 C 
DOCKED: BRANCH   3   4
DOCKED: ATOM      4  C   UNL     1      26.944 -14.403  -2.825 -0.31 -0.00    +0.000 C 
DOCKED: BRANCH   4   5
DOCKED: ATOM      5  C   UNL     1      26.630 -14.097  -4.299 -0.42 -0.00    +0.000 C 
DOCKED: BRANCH   5   7
DOCKED: ATOM      6  O   UNL     1      24.275 -13.737  -4.106 -1.13 -0.00    +0.000 OA
DOCKED: ATOM      7  C   UNL     1      25.391 -13.263  -4.451 -0.33 -0.00    +0.000 C 
DOCKED: ATOM      8  N   UNL     1      25.466 -11.947  -5.006 -0.33 -0.00    +0.000 N 
DOCKED: ATOM      9  H   UNL     1      26.340 -11.578  -5.267 -0.01 -0.00    +0.000 HD
DOCKED: BRANCH   8  10
DOCKED: ATOM     10  O   UNL     1      24.345 -11.205  -5.173 -0.53 -0.00    +0.000 OA
DOCKED: ATOM     11  H   UNL     1      23.565 -11.776  -5.102 -0.50 -0.00    +0.000 HD
DOCKED: ENDBRANCH   8  10
DOCKED: ENDBRANCH   5   7
DOCKED: ENDBRANCH   4   5
DOCKED: ENDBRANCH   3   4
DOCKED: ENDBRANCH   2   3
DOCKED: ENDBRANCH   1   2
DOCKED: BRANCH   1  12
DOCKED: ATOM     12  C   UNL     1      25.325 -18.443  -0.247 -0.63 -0.00    +0.000 C 
DOCKED: BRANCH  12  13
DOCKED: ATOM     13  C   UNL     1      23.893 -18.477  -0.698 -0.81 -0.00    +0.000 C 
DOCKED: ATOM     14  N   UNL     1      22.836 -18.571   0.271 -0.68 -0.00    +0.000 N 
DOCKED: ATOM     15  O   UNL     1      23.631 -18.432  -1.930 -0.76 -0.00    +0.000 OA
DOCKED: ATOM     16  H   UNL     1      23.032 -18.296   1.195 -0.06 -0.00    +0.000 HD
DOCKED: BRANCH  14  17
DOCKED: ATOM     17  C   UNL     1      21.510 -19.041  -0.027 -0.68 -0.00    +0.000 A 
DOCKED: ATOM     18  C   UNL     1      20.637 -19.359   1.023 -0.41 -0.00    +0.000 A 
DOCKED: ATOM     19  C   UNL     1      19.359 -19.848   0.748 -0.68 -0.00    +0.000 A 
DOCKED: ATOM     20  C   UNL     1      18.967 -20.029  -0.579 -0.40 -0.00    +0.000 A 
DOCKED: ATOM     21  N   UNL     1      19.830 -19.740  -1.588 -1.57 -0.00    +0.000 NA
DOCKED: ATOM     22  C   UNL     1      21.079 -19.260  -1.347 -0.68 -0.00    +0.000 A 
DOCKED: ENDBRANCH  14  17
DOCKED: ENDBRANCH  12  13
DOCKED: ENDBRANCH   1  12
DOCKED: TORSDOF 9
DOCKED: TER
DOCKED: ENDMDL
________________________________________________________________________________


	BEGINNING GENETIC ALGORITHM DOCKING 19 of 100
Run: 19 Seed: 441109886 76456121 [ Run 19 of 100 GA/GALS ]
Beginning LAMARCKIAN GENETIC ALGORITHM (LGA), with a maximum of 2500000 energy evaluations.

Final-Value: -14.281


	FINAL GENETIC ALGORITHM DOCKED STATE
	_______________________________________________


Detailed state:  trans 24.527 -18.257 -4.491 quatxyzw 0.659674 -0.627569 0.203654 -0.359878 center -0.121 -0.193 0.463 ntor 9 16.3524 -35.0598 -115.5619 -153.0906 -122.2150 48.4474 73.8111 178.7552 -40.9062
State:	 24.527 -18.257  -4.491   0.707 -0.673  0.218 -137.815     16.35  -35.06 -115.56 -153.09 -122.21   48.45   73.81  178.76  -40.91

DOCKED: MODEL       19
DOCKED: USER    Run = 19
DOCKED: USER    DPF = ligand_dock.biased.dpf
DOCKED: USER  
DOCKED: USER    Estimated Free Energy of Binding    =  -10.37 kcal/mol  [=(1)+(2)+(3)-(4)]
DOCKED: USER    Estimated Inhibition Constant, Ki   =   24.95 nM (nanomolar)  [Temperature = 298.15 K]
DOCKED: USER    
DOCKED: USER    (1) Final Intermolecular Energy     =  -13.06 kcal/mol
DOCKED: USER        vdW + Hbond + desolv Energy     =  -13.06 kcal/mol
DOCKED: USER        Electrostatic Energy            =   +0.00 kcal/mol
DOCKED: USER    (2) Final Total Internal Energy     =   -1.22 kcal/mol
DOCKED: USER    (3) Torsional Free Energy           =   +2.68 kcal/mol
DOCKED: USER    (4) Unbound System's Energy  [=(2)] =   -1.22 kcal/mol
DOCKED: USER    
DOCKED: USER    
DOCKED: USER    NEWDPF move ligand.pdbqt
DOCKED: USER    NEWDPF about -0.121000 -0.193000 0.463000
DOCKED: USER    NEWDPF tran0 24.526976 -18.256814 -4.490898
DOCKED: USER    NEWDPF quaternion0 0.659674 -0.627569 0.203654 -0.359878
DOCKED: USER    NEWDPF axisangle0 0.707047 -0.672636 0.218279 -137.814563
DOCKED: USER    NEWDPF quat0 0.707047 -0.672636 0.218279 -137.814563
DOCKED: USER    NEWDPF dihe0 16.35 -35.06 -115.56 -153.09 -122.21 48.45 73.81 178.76 -40.91 
DOCKED: USER  keepresnum = 1 
DOCKED: USER  
DOCKED: REMARK  Name = 
DOCKED: REMARK  9 active torsions:
DOCKED: REMARK  status: ('A' for Active; 'I' for Inactive)
DOCKED: REMARK    1  A    between atoms: C_2  and  C_5
DOCKED: REMARK    2  A    between atoms: N_3  and  O_4
DOCKED: REMARK    3  A    between atoms: C_5  and  C_6
DOCKED: REMARK    4  A    between atoms: C_6  and  C_7
DOCKED: REMARK    5  A    between atoms: C_7  and  C_8
DOCKED: REMARK    6  A    between atoms: C_8  and  C_9
DOCKED: REMARK    7  A    between atoms: C_9  and  C_10
DOCKED: REMARK    8  A    between atoms: C_10  and  C_11
DOCKED: REMARK    9  A    between atoms: N_12  and  C_13
DOCKED: REMARK                            x       y       z     vdW  Elec       q    Type
DOCKED: REMARK                         _______ _______ _______ _____ _____    ______ ____
DOCKED: USER                              x       y       z     vdW  Elec       q    Type
DOCKED: USER                           _______ _______ _______ _____ _____    ______ ____
DOCKED: ROOT
DOCKED: ATOM      1  C   UNL     1      25.812 -16.460  -2.159 -0.54 -0.00    +0.000 C 
DOCKED: ENDROOT
DOCKED: BRANCH   1   2
DOCKED: ATOM      2  C   UNL     1      24.557 -17.346  -2.119 -0.52 -0.00    +0.000 C 
DOCKED: BRANCH   2   3
DOCKED: ATOM      3  C   UNL     1      23.838 -17.223  -0.769 -0.71 -0.00    +0.000 C 
DOCKED: BRANCH   3   4
DOCKED: ATOM      4  C   UNL     1      23.353 -18.579  -0.226 -0.77 -0.00    +0.000 C 
DOCKED: BRANCH   4   5
DOCKED: ATOM      5  C   UNL     1      22.432 -19.354  -1.182 -0.69 -0.00    +0.000 C 
DOCKED: BRANCH   5   7
DOCKED: ATOM      6  O   UNL     1      20.629 -17.859  -0.708 -2.35 -0.00    +0.000 OA
DOCKED: ATOM      7  C   UNL     1      20.982 -19.046  -0.943 -0.88 -0.00    +0.000 C 
DOCKED: ATOM      8  N   UNL     1      20.007 -20.092  -0.957 -0.74 -0.00    +0.000 N 
DOCKED: ATOM      9  H   UNL     1      20.286 -21.016  -1.147 -0.48 -0.00    +0.000 HD
DOCKED: BRANCH   8  10
DOCKED: ATOM     10  O   UNL     1      18.703 -19.821  -0.711 -0.88 -0.00    +0.000 OA
DOCKED: ATOM     11  H   UNL     1      18.548 -18.868  -0.799 -0.54 -0.00    +0.000 HD
DOCKED: ENDBRANCH   8  10
DOCKED: ENDBRANCH   5   7
DOCKED: ENDBRANCH   4   5
DOCKED: ENDBRANCH   3   4
DOCKED: ENDBRANCH   2   3
DOCKED: ENDBRANCH   1   2
DOCKED: BRANCH   1  12
DOCKED: ATOM     12  C   UNL     1      25.623 -15.228  -3.054 -0.54 -0.00    +0.000 C 
DOCKED: BRANCH  12  13
DOCKED: ATOM     13  C   UNL     1      26.469 -15.316  -4.292 -0.54 -0.00    +0.000 C 
DOCKED: ATOM     14  N   UNL     1      27.822 -14.834  -4.275 -0.29 -0.00    +0.000 N 
DOCKED: ATOM     15  O   UNL     1      25.977 -15.808  -5.343 -1.12 +0.00    +0.000 OA
DOCKED: ATOM     16  H   UNL     1      28.271 -14.752  -3.403 +0.00 -0.00    +0.000 HD
DOCKED: BRANCH  14  17
DOCKED: ATOM     17  C   UNL     1      28.561 -14.465  -5.452 -0.30 -0.00    +0.000 A 
DOCKED: ATOM     18  C   UNL     1      28.520 -13.139  -5.907 -0.21 -0.00    +0.000 A 
DOCKED: ATOM     19  C   UNL     1      29.206 -12.775  -7.066 -0.20 -0.00    +0.000 A 
DOCKED: ATOM     20  C   UNL     1      29.918 -13.745  -7.773 -0.13 -0.00    +0.000 A 
DOCKED: ATOM     21  N   UNL     1      29.931 -15.032  -7.337 -0.30 -0.00    +0.000 NA
DOCKED: ATOM     22  C   UNL     1      29.274 -15.412  -6.209 -0.33 -0.00    +0.000 A 
DOCKED: ENDBRANCH  14  17
DOCKED: ENDBRANCH  12  13
DOCKED: ENDBRANCH   1  12
DOCKED: TORSDOF 9
DOCKED: TER
DOCKED: ENDMDL
________________________________________________________________________________


	BEGINNING GENETIC ALGORITHM DOCKING 20 of 100
Run: 20 Seed: 646451229 1745520708 [ Run 20 of 100 GA/GALS ]
Beginning LAMARCKIAN GENETIC ALGORITHM (LGA), with a maximum of 2500000 energy evaluations.

Final-Value: -13.535


	FINAL GENETIC ALGORITHM DOCKED STATE
	_______________________________________________


Detailed state:  trans 25.257 -19.274 -0.464 quatxyzw 0.068820 -0.594015 0.622191 -0.505260 center -0.121 -0.193 0.463 ntor 9 -22.8001 151.1400 22.4675 113.2652 -152.1256 26.9319 -98.8528 -165.9213 172.1659
State:	 25.257 -19.274  -0.464   0.080 -0.688  0.721 -119.303    -22.80  151.14   22.47  113.27 -152.13   26.93  -98.85 -165.92  172.17

DOCKED: MODEL       20
DOCKED: USER    Run = 20
DOCKED: USER    DPF = ligand_dock.biased.dpf
DOCKED: USER  
DOCKED: USER    Estimated Free Energy of Binding    =   -9.62 kcal/mol  [=(1)+(2)+(3)-(4)]
DOCKED: USER    Estimated Inhibition Constant, Ki   =   89.19 nM (nanomolar)  [Temperature = 298.15 K]
DOCKED: USER    
DOCKED: USER    (1) Final Intermolecular Energy     =  -12.30 kcal/mol
DOCKED: USER        vdW + Hbond + desolv Energy     =  -12.30 kcal/mol
DOCKED: USER        Electrostatic Energy            =   +0.00 kcal/mol
DOCKED: USER    (2) Final Total Internal Energy     =   -1.23 kcal/mol
DOCKED: USER    (3) Torsional Free Energy           =   +2.68 kcal/mol
DOCKED: USER    (4) Unbound System's Energy  [=(2)] =   -1.23 kcal/mol
DOCKED: USER    
DOCKED: USER    
DOCKED: USER    NEWDPF move ligand.pdbqt
DOCKED: USER    NEWDPF about -0.121000 -0.193000 0.463000
DOCKED: USER    NEWDPF tran0 25.256670 -19.274073 -0.464129
DOCKED: USER    NEWDPF quaternion0 0.068820 -0.594015 0.622191 -0.505260
DOCKED: USER    NEWDPF axisangle0 0.079748 -0.688341 0.720991 -119.302794
DOCKED: USER    NEWDPF quat0 0.079748 -0.688341 0.720991 -119.302794
DOCKED: USER    NEWDPF dihe0 -22.80 151.14 22.47 113.27 -152.13 26.93 -98.85 -165.92 172.17 
DOCKED: USER  keepresnum = 1 
DOCKED: USER  
DOCKED: REMARK  Name = 
DOCKED: REMARK  9 active torsions:
DOCKED: REMARK  status: ('A' for Active; 'I' for Inactive)
DOCKED: REMARK    1  A    between atoms: C_2  and  C_5
DOCKED: REMARK    2  A    between atoms: N_3  and  O_4
DOCKED: REMARK    3  A    between atoms: C_5  and  C_6
DOCKED: REMARK    4  A    between atoms: C_6  and  C_7
DOCKED: REMARK    5  A    between atoms: C_7  and  C_8
DOCKED: REMARK    6  A    between atoms: C_8  and  C_9
DOCKED: REMARK    7  A    between atoms: C_9  and  C_10
DOCKED: REMARK    8  A    between atoms: C_10  and  C_11
DOCKED: REMARK    9  A    between atoms: N_12  and  C_13
DOCKED: REMARK                            x       y       z     vdW  Elec       q    Type
DOCKED: REMARK                         _______ _______ _______ _____ _____    ______ ____
DOCKED: USER                              x       y       z     vdW  Elec       q    Type
DOCKED: USER                           _______ _______ _______ _____ _____    ______ ____
DOCKED: ROOT
DOCKED: ATOM      1  C   UNL     1      27.011 -16.583  -0.475 -0.46 -0.00    +0.000 C 
DOCKED: ENDROOT
DOCKED: BRANCH   1   2
DOCKED: ATOM      2  C   UNL     1      25.502 -16.757  -0.707 -0.57 -0.00    +0.000 C 
DOCKED: BRANCH   2   3
DOCKED: ATOM      3  C   UNL     1      25.047 -18.175  -0.332 -0.71 -0.00    +0.000 C 
DOCKED: BRANCH   3   4
DOCKED: ATOM      4  C   UNL     1      23.717 -18.569  -0.999 -0.81 -0.00    +0.000 C 
DOCKED: BRANCH   4   5
DOCKED: ATOM      5  C   UNL     1      22.463 -18.133  -0.224 -0.81 -0.00    +0.000 C 
DOCKED: BRANCH   5   7
DOCKED: ATOM      6  O   UNL     1      20.312 -17.542  -1.082 -2.06 -0.00    +0.000 OA
DOCKED: ATOM      7  C   UNL     1      21.200 -18.431  -0.979 -0.76 -0.00    +0.000 C 
DOCKED: ATOM      8  N   UNL     1      20.989 -19.721  -1.558 -0.73 -0.00    +0.000 N 
DOCKED: ATOM      9  H   UNL     1      21.687 -20.410  -1.481 -0.30 -0.00    +0.000 HD
DOCKED: BRANCH   8  10
DOCKED: ATOM     10  O   UNL     1      19.837 -20.002  -2.213 -1.77 -0.00    +0.000 OA
DOCKED: ATOM     11  H   UNL     1      19.138 -19.403  -1.910 -0.51 -0.00    +0.000 HD
DOCKED: ENDBRANCH   8  10
DOCKED: ENDBRANCH   5   7
DOCKED: ENDBRANCH   4   5
DOCKED: ENDBRANCH   3   4
DOCKED: ENDBRANCH   2   3
DOCKED: ENDBRANCH   1   2
DOCKED: BRANCH   1  12
DOCKED: ATOM     12  C   UNL     1      27.845 -17.176  -1.619 -0.30 -0.00    +0.000 C 
DOCKED: BRANCH  12  13
DOCKED: ATOM     13  C   UNL     1      28.349 -16.104  -2.542 -0.28 -0.00    +0.000 C 
DOCKED: ATOM     14  N   UNL     1      27.440 -15.431  -3.428 -0.31 -0.00    +0.000 N 
DOCKED: ATOM     15  O   UNL     1      29.575 -15.808  -2.535 -0.16 -0.00    +0.000 OA
DOCKED: ATOM     16  H   UNL     1      26.482 -15.448  -3.205 -0.01 -0.00    +0.000 HD
DOCKED: BRANCH  14  17
DOCKED: ATOM     17  C   UNL     1      27.844 -14.736  -4.620 -0.32 -0.00    +0.000 A 
DOCKED: ATOM     18  C   UNL     1      27.372 -13.437  -4.857 -0.26 -0.00    +0.000 A 
DOCKED: ATOM     19  C   UNL     1      27.730 -12.763  -6.026 -0.19 -0.00    +0.000 A 
DOCKED: ATOM     20  C   UNL     1      28.549 -13.400  -6.959 -0.25 -0.00    +0.000 A 
DOCKED: ATOM     21  N   UNL     1      28.981 -14.668  -6.731 -0.38 -0.00    +0.000 NA
DOCKED: ATOM     22  C   UNL     1      28.650 -15.345  -5.599 -0.35 -0.00    +0.000 A 
DOCKED: ENDBRANCH  14  17
DOCKED: ENDBRANCH  12  13
DOCKED: ENDBRANCH   1  12
DOCKED: TORSDOF 9
DOCKED: TER
DOCKED: ENDMDL
________________________________________________________________________________


	BEGINNING GENETIC ALGORITHM DOCKING 21 of 100
Run: 21 Seed: 1637920576 227651384 [ Run 21 of 100 GA/GALS ]
Beginning LAMARCKIAN GENETIC ALGORITHM (LGA), with a maximum of 2500000 energy evaluations.

Final-Value: -12.736


	FINAL GENETIC ALGORITHM DOCKED STATE
	_______________________________________________


Detailed state:  trans 23.756 -14.673 0.359 quatxyzw -0.124207 0.444378 0.876171 0.139373 center -0.121 -0.193 0.463 ntor 9 28.9979 9.2900 179.9661 -150.3871 -67.4845 113.8625 108.2864 102.3530 -92.1279
State:	 23.756 -14.673   0.359  -0.125  0.449  0.885 163.977     29.00    9.29  179.97 -150.39  -67.48  113.86  108.29  102.35  -92.13

DOCKED: MODEL       21
DOCKED: USER    Run = 21
DOCKED: USER    DPF = ligand_dock.biased.dpf
DOCKED: USER  
DOCKED: USER    Estimated Free Energy of Binding    =   -8.95 kcal/mol  [=(1)+(2)+(3)-(4)]
DOCKED: USER    Estimated Inhibition Constant, Ki   =  277.23 nM (nanomolar)  [Temperature = 298.15 K]
DOCKED: USER    
DOCKED: USER    (1) Final Intermolecular Energy     =  -11.63 kcal/mol
DOCKED: USER        vdW + Hbond + desolv Energy     =  -11.63 kcal/mol
DOCKED: USER        Electrostatic Energy            =   +0.00 kcal/mol
DOCKED: USER    (2) Final Total Internal Energy     =   -1.11 kcal/mol
DOCKED: USER    (3) Torsional Free Energy           =   +2.68 kcal/mol
DOCKED: USER    (4) Unbound System's Energy  [=(2)] =   -1.11 kcal/mol
DOCKED: USER    
DOCKED: USER    
DOCKED: USER    NEWDPF move ligand.pdbqt
DOCKED: USER    NEWDPF about -0.121000 -0.193000 0.463000
DOCKED: USER    NEWDPF tran0 23.756076 -14.672533 0.358549
DOCKED: USER    NEWDPF quaternion0 -0.124207 0.444378 0.876171 0.139373
DOCKED: USER    NEWDPF axisangle0 -0.125432 0.448758 0.884807 163.976898
DOCKED: USER    NEWDPF quat0 -0.125432 0.448758 0.884807 163.976898
DOCKED: USER    NEWDPF dihe0 29.00 9.29 179.97 -150.39 -67.48 113.86 108.29 102.35 -92.13 
DOCKED: USER  keepresnum = 1 
DOCKED: USER  
DOCKED: REMARK  Name = 
DOCKED: REMARK  9 active torsions:
DOCKED: REMARK  status: ('A' for Active; 'I' for Inactive)
DOCKED: REMARK    1  A    between atoms: C_2  and  C_5
DOCKED: REMARK    2  A    between atoms: N_3  and  O_4
DOCKED: REMARK    3  A    between atoms: C_5  and  C_6
DOCKED: REMARK    4  A    between atoms: C_6  and  C_7
DOCKED: REMARK    5  A    between atoms: C_7  and  C_8
DOCKED: REMARK    6  A    between atoms: C_8  and  C_9
DOCKED: REMARK    7  A    between atoms: C_9  and  C_10
DOCKED: REMARK    8  A    between atoms: C_10  and  C_11
DOCKED: REMARK    9  A    between atoms: N_12  and  C_13
DOCKED: REMARK                            x       y       z     vdW  Elec       q    Type
DOCKED: REMARK                         _______ _______ _______ _____ _____    ______ ____
DOCKED: USER                              x       y       z     vdW  Elec       q    Type
DOCKED: USER                           _______ _______ _______ _____ _____    ______ ____
DOCKED: ROOT
DOCKED: ATOM      1  C   UNL     1      24.142 -16.814  -2.004 -0.12 -0.00    +0.000 C 
DOCKED: ENDROOT
DOCKED: BRANCH   1   2
DOCKED: ATOM      2  C   UNL     1      23.573 -17.022  -0.591 -0.60 -0.00    +0.000 C 
DOCKED: BRANCH   2   3
DOCKED: ATOM      3  C   UNL     1      24.028 -18.367  -0.007 -0.67 -0.00    +0.000 C 
DOCKED: BRANCH   3   4
DOCKED: ATOM      4  C   UNL     1      23.334 -19.569  -0.672 -0.40 -0.00    +0.000 C 
DOCKED: BRANCH   4   5
DOCKED: ATOM      5  C   UNL     1      22.307 -19.193  -1.753 -0.32 -0.00    +0.000 C 
DOCKED: BRANCH   5   7
DOCKED: ATOM      6  O   UNL     1      20.622 -17.860  -0.707 -2.35 -0.00    +0.000 OA
DOCKED: ATOM      7  C   UNL     1      20.935 -18.985  -1.181 -0.81 -0.00    +0.000 C 
DOCKED: ATOM      8  N   UNL     1      19.992 -20.060  -1.148 -0.73 -0.00    +0.000 N 
DOCKED: ATOM      9  H   UNL     1      20.238 -20.936  -1.525 -0.57 -0.00    +0.000 HD
DOCKED: BRANCH   8  10
DOCKED: ATOM     10  O   UNL     1      18.765 -19.884  -0.604 -0.91 -0.00    +0.000 OA
DOCKED: ATOM     11  H   UNL     1      18.498 -18.957  -0.701 -0.54 -0.00    +0.000 HD
DOCKED: ENDBRANCH   8  10
DOCKED: ENDBRANCH   5   7
DOCKED: ENDBRANCH   4   5
DOCKED: ENDBRANCH   3   4
DOCKED: ENDBRANCH   2   3
DOCKED: ENDBRANCH   1   2
DOCKED: BRANCH   1  12
DOCKED: ATOM     12  C   UNL     1      25.646 -16.510  -1.984 -0.57 -0.00    +0.000 C 
DOCKED: BRANCH  12  13
DOCKED: ATOM     13  C   UNL     1      26.098 -15.898  -3.279 -0.48 -0.00    +0.000 C 
DOCKED: ATOM     14  N   UNL     1      27.496 -15.858  -3.606 -0.31 -0.00    +0.000 N 
DOCKED: ATOM     15  O   UNL     1      25.241 -15.417  -4.068 -0.75 -0.00    +0.000 OA
DOCKED: ATOM     16  H   UNL     1      28.095 -16.492  -3.152 -0.02 -0.00    +0.000 HD
DOCKED: BRANCH  14  17
DOCKED: ATOM     17  C   UNL     1      28.075 -14.946  -4.556 -0.31 -0.00    +0.000 A 
DOCKED: ATOM     18  C   UNL     1      27.448 -13.718  -4.807 -0.27 -0.00    +0.000 A 
DOCKED: ATOM     19  C   UNL     1      27.981 -12.839  -5.751 -0.20 -0.00    +0.000 A 
DOCKED: ATOM     20  C   UNL     1      29.133 -13.201  -6.450 -0.20 -0.00    +0.000 A 
DOCKED: ATOM     21  N   UNL     1      29.719 -14.405  -6.217 -0.23 -0.00    +0.000 NA
DOCKED: ATOM     22  C   UNL     1      29.222 -15.278  -5.300 -0.28 -0.00    +0.000 A 
DOCKED: ENDBRANCH  14  17
DOCKED: ENDBRANCH  12  13
DOCKED: ENDBRANCH   1  12
DOCKED: TORSDOF 9
DOCKED: TER
DOCKED: ENDMDL
________________________________________________________________________________


	BEGINNING GENETIC ALGORITHM DOCKING 22 of 100
Run: 22 Seed: 1402702636 1069782341 [ Run 22 of 100 GA/GALS ]
Beginning LAMARCKIAN GENETIC ALGORITHM (LGA), with a maximum of 2500000 energy evaluations.

Final-Value: -13.655


	FINAL GENETIC ALGORITHM DOCKED STATE
	_______________________________________________


Detailed state:  trans 27.162 -16.402 0.005 quatxyzw -0.329095 -0.064836 -0.912931 0.232484 center -0.121 -0.193 0.463 ntor 9 32.4073 -46.0829 83.1919 -179.9075 69.4361 40.6384 144.7612 -57.4538 -96.8561
State:	 27.162 -16.402   0.005  -0.338 -0.067 -0.939 153.113     32.41  -46.08   83.19 -179.91   69.44   40.64  144.76  -57.45  -96.86

DOCKED: MODEL       22
DOCKED: USER    Run = 22
DOCKED: USER    DPF = ligand_dock.biased.dpf
DOCKED: USER  
DOCKED: USER    Estimated Free Energy of Binding    =   -9.79 kcal/mol  [=(1)+(2)+(3)-(4)]
DOCKED: USER    Estimated Inhibition Constant, Ki   =   66.80 nM (nanomolar)  [Temperature = 298.15 K]
DOCKED: USER    
DOCKED: USER    (1) Final Intermolecular Energy     =  -12.47 kcal/mol
DOCKED: USER        vdW + Hbond + desolv Energy     =  -12.47 kcal/mol
DOCKED: USER        Electrostatic Energy            =   +0.00 kcal/mol
DOCKED: USER    (2) Final Total Internal Energy     =   -1.18 kcal/mol
DOCKED: USER    (3) Torsional Free Energy           =   +2.68 kcal/mol
DOCKED: USER    (4) Unbound System's Energy  [=(2)] =   -1.18 kcal/mol
DOCKED: USER    
DOCKED: USER    
DOCKED: USER    NEWDPF move ligand.pdbqt
DOCKED: USER    NEWDPF about -0.121000 -0.193000 0.463000
DOCKED: USER    NEWDPF tran0 27.161659 -16.401980 0.004711
DOCKED: USER    NEWDPF quaternion0 -0.329095 -0.064836 -0.912931 0.232484
DOCKED: USER    NEWDPF axisangle0 -0.338366 -0.066662 -0.938650 153.113222
DOCKED: USER    NEWDPF quat0 -0.338366 -0.066662 -0.938650 153.113222
DOCKED: USER    NEWDPF dihe0 32.41 -46.08 83.19 -179.91 69.44 40.64 144.76 -57.45 -96.86 
DOCKED: USER  keepresnum = 1 
DOCKED: USER  
DOCKED: REMARK  Name = 
DOCKED: REMARK  9 active torsions:
DOCKED: REMARK  status: ('A' for Active; 'I' for Inactive)
DOCKED: REMARK    1  A    between atoms: C_2  and  C_5
DOCKED: REMARK    2  A    between atoms: N_3  and  O_4
DOCKED: REMARK    3  A    between atoms: C_5  and  C_6
DOCKED: REMARK    4  A    between atoms: C_6  and  C_7
DOCKED: REMARK    5  A    between atoms: C_7  and  C_8
DOCKED: REMARK    6  A    between atoms: C_8  and  C_9
DOCKED: REMARK    7  A    between atoms: C_9  and  C_10
DOCKED: REMARK    8  A    between atoms: C_10  and  C_11
DOCKED: REMARK    9  A    between atoms: N_12  and  C_13
DOCKED: REMARK                            x       y       z     vdW  Elec       q    Type
DOCKED: REMARK                         _______ _______ _______ _____ _____    ______ ____
DOCKED: USER                              x       y       z     vdW  Elec       q    Type
DOCKED: USER                           _______ _______ _______ _____ _____    ______ ____
DOCKED: ROOT
DOCKED: ATOM      1  C   UNL     1      25.048 -15.424  -2.207 -0.30 -0.00    +0.000 C 
DOCKED: ENDROOT
DOCKED: BRANCH   1   2
DOCKED: ATOM      2  C   UNL     1      24.813 -16.285  -0.956 -0.50 -0.00    +0.000 C 
DOCKED: BRANCH   2   3
DOCKED: ATOM      3  C   UNL     1      24.617 -17.761  -1.333 -0.72 -0.00    +0.000 C 
DOCKED: BRANCH   3   4
DOCKED: ATOM      4  C   UNL     1      23.613 -18.481  -0.415 -0.80 -0.00    +0.000 C 
DOCKED: BRANCH   4   5
DOCKED: ATOM      5  C   UNL     1      22.601 -19.372  -1.155 -0.68 -0.00    +0.000 C 
DOCKED: BRANCH   5   7
DOCKED: ATOM      6  O   UNL     1      20.949 -17.693  -0.747 -2.13 -0.00    +0.000 OA
DOCKED: ATOM      7  C   UNL     1      21.187 -18.916  -0.943 -0.86 -0.00    +0.000 C 
DOCKED: ATOM      8  N   UNL     1      20.113 -19.861  -0.937 -0.80 -0.00    +0.000 N 
DOCKED: ATOM      9  H   UNL     1      20.302 -20.814  -1.097 -0.42 -0.00    +0.000 HD
DOCKED: BRANCH   8  10
DOCKED: ATOM     10  O   UNL     1      18.840 -19.456  -0.714 -0.90 -0.00    +0.000 OA
DOCKED: ATOM     11  H   UNL     1      18.718 -18.563  -1.071 -0.63 -0.00    +0.000 HD
DOCKED: ENDBRANCH   8  10
DOCKED: ENDBRANCH   5   7
DOCKED: ENDBRANCH   4   5
DOCKED: ENDBRANCH   3   4
DOCKED: ENDBRANCH   2   3
DOCKED: ENDBRANCH   1   2
DOCKED: BRANCH   1  12
DOCKED: ATOM     12  C   UNL     1      25.875 -16.159  -3.270 -0.40 -0.00    +0.000 C 
DOCKED: BRANCH  12  13
DOCKED: ATOM     13  C   UNL     1      26.360 -15.218  -4.334 -0.56 -0.00    +0.000 C 
DOCKED: ATOM     14  N   UNL     1      26.752 -13.880  -3.987 -0.31 -0.00    +0.000 N 
DOCKED: ATOM     15  O   UNL     1      26.411 -15.611  -5.531 -1.21 +0.00    +0.000 OA
DOCKED: ATOM     16  H   UNL     1      26.999 -13.699  -3.052 +0.00 -0.00    +0.000 HD
DOCKED: BRANCH  14  17
DOCKED: ATOM     17  C   UNL     1      26.807 -12.789  -4.922 -0.24 -0.00    +0.000 A 
DOCKED: ATOM     18  C   UNL     1      27.804 -12.771  -5.908 -0.20 -0.00    +0.000 A 
DOCKED: ATOM     19  C   UNL     1      27.888 -11.701  -6.801 -0.16 -0.00    +0.000 A 
DOCKED: ATOM     20  C   UNL     1      26.981 -10.647  -6.692 -0.14 -0.00    +0.000 A 
DOCKED: ATOM     21  N   UNL     1      26.034 -10.662  -5.717 -0.22 -0.00    +0.000 NA
DOCKED: ATOM     22  C   UNL     1      25.928 -11.693  -4.837 -0.30 -0.00    +0.000 A 
DOCKED: ENDBRANCH  14  17
DOCKED: ENDBRANCH  12  13
DOCKED: ENDBRANCH   1  12
DOCKED: TORSDOF 9
DOCKED: TER
DOCKED: ENDMDL
________________________________________________________________________________


	BEGINNING GENETIC ALGORITHM DOCKING 23 of 100
Run: 23 Seed: 1065962433 405984810 [ Run 23 of 100 GA/GALS ]
Beginning LAMARCKIAN GENETIC ALGORITHM (LGA), with a maximum of 2500000 energy evaluations.

Final-Value: -13.202


	FINAL GENETIC ALGORITHM DOCKED STATE
	_______________________________________________


Detailed state:  trans 25.289 -13.357 -1.936 quatxyzw -0.379045 0.653195 0.655391 0.011160 center -0.121 -0.193 0.463 ntor 9 -9.5962 -149.7552 -179.2773 86.4808 148.9208 79.6050 87.5923 -179.8239 72.0876
State:	 25.289 -13.357  -1.936  -0.379  0.653  0.655 178.721     -9.60 -149.76 -179.28   86.48  148.92   79.60   87.59 -179.82   72.09

DOCKED: MODEL       23
DOCKED: USER    Run = 23
DOCKED: USER    DPF = ligand_dock.biased.dpf
DOCKED: USER  
DOCKED: USER    Estimated Free Energy of Binding    =   -9.15 kcal/mol  [=(1)+(2)+(3)-(4)]
DOCKED: USER    Estimated Inhibition Constant, Ki   =  195.27 nM (nanomolar)  [Temperature = 298.15 K]
DOCKED: USER    
DOCKED: USER    (1) Final Intermolecular Energy     =  -11.84 kcal/mol
DOCKED: USER        vdW + Hbond + desolv Energy     =  -11.84 kcal/mol
DOCKED: USER        Electrostatic Energy            =   +0.00 kcal/mol
DOCKED: USER    (2) Final Total Internal Energy     =   -1.36 kcal/mol
DOCKED: USER    (3) Torsional Free Energy           =   +2.68 kcal/mol
DOCKED: USER    (4) Unbound System's Energy  [=(2)] =   -1.36 kcal/mol
DOCKED: USER    
DOCKED: USER    
DOCKED: USER    NEWDPF move ligand.pdbqt
DOCKED: USER    NEWDPF about -0.121000 -0.193000 0.463000
DOCKED: USER    NEWDPF tran0 25.289163 -13.356828 -1.936335
DOCKED: USER    NEWDPF quaternion0 -0.379045 0.653195 0.655391 0.011160
DOCKED: USER    NEWDPF axisangle0 -0.379068 0.653236 0.655431 178.721087
DOCKED: USER    NEWDPF quat0 -0.379068 0.653236 0.655431 178.721087
DOCKED: USER    NEWDPF dihe0 -9.60 -149.76 -179.28 86.48 148.92 79.60 87.59 -179.82 72.09 
DOCKED: USER  keepresnum = 1 
DOCKED: USER  
DOCKED: REMARK  Name = 
DOCKED: REMARK  9 active torsions:
DOCKED: REMARK  status: ('A' for Active; 'I' for Inactive)
DOCKED: REMARK    1  A    between atoms: C_2  and  C_5
DOCKED: REMARK    2  A    between atoms: N_3  and  O_4
DOCKED: REMARK    3  A    between atoms: C_5  and  C_6
DOCKED: REMARK    4  A    between atoms: C_6  and  C_7
DOCKED: REMARK    5  A    between atoms: C_7  and  C_8
DOCKED: REMARK    6  A    between atoms: C_8  and  C_9
DOCKED: REMARK    7  A    between atoms: C_9  and  C_10
DOCKED: REMARK    8  A    between atoms: C_10  and  C_11
DOCKED: REMARK    9  A    between atoms: N_12  and  C_13
DOCKED: REMARK                            x       y       z     vdW  Elec       q    Type
DOCKED: REMARK                         _______ _______ _______ _____ _____    ______ ____
DOCKED: USER                              x       y       z     vdW  Elec       q    Type
DOCKED: USER                           _______ _______ _______ _____ _____    ______ ____
DOCKED: ROOT
DOCKED: ATOM      1  C   UNL     1      26.738 -16.190  -2.371 -0.41 -0.00    +0.000 C 
DOCKED: ENDROOT
DOCKED: BRANCH   1   2
DOCKED: ATOM      2  C   UNL     1      25.396 -15.883  -1.688 -0.52 -0.00    +0.000 C 
DOCKED: BRANCH   2   3
DOCKED: ATOM      3  C   UNL     1      24.948 -17.054  -0.802 -0.64 -0.00    +0.000 C 
DOCKED: BRANCH   3   4
DOCKED: ATOM      4  C   UNL     1      23.781 -17.850  -1.413 -0.75 -0.00    +0.000 C 
DOCKED: BRANCH   4   5
DOCKED: ATOM      5  C   UNL     1      22.778 -18.398  -0.385 -0.83 -0.00    +0.000 C 
DOCKED: BRANCH   5   7
DOCKED: ATOM      6  O   UNL     1      20.725 -17.393  -1.082 -1.99 -0.00    +0.000 OA
DOCKED: ATOM      7  C   UNL     1      21.382 -18.458  -0.934 -0.79 -0.00    +0.000 C 
DOCKED: ATOM      8  N   UNL     1      20.786 -19.716  -1.265 -0.80 -0.00    +0.000 N 
DOCKED: ATOM      9  H   UNL     1      21.305 -20.545  -1.154 -0.16 -0.00    +0.000 HD
DOCKED: BRANCH   8  10
DOCKED: ATOM     10  O   UNL     1      19.516 -19.775  -1.731 -1.62 -0.00    +0.000 OA
DOCKED: ATOM     11  H   UNL     1      19.097 -18.906  -1.640 -0.56 -0.00    +0.000 HD
DOCKED: ENDBRANCH   8  10
DOCKED: ENDBRANCH   5   7
DOCKED: ENDBRANCH   4   5
DOCKED: ENDBRANCH   3   4
DOCKED: ENDBRANCH   2   3
DOCKED: ENDBRANCH   1   2
DOCKED: BRANCH   1  12
DOCKED: ATOM     12  C   UNL     1      27.933 -15.662  -1.565 -0.28 -0.00    +0.000 C 
DOCKED: BRANCH  12  13
DOCKED: ATOM     13  C   UNL     1      27.487 -15.016  -0.285 -0.29 -0.00    +0.000 C 
DOCKED: ATOM     14  N   UNL     1      27.100 -13.633  -0.273 -0.22 -0.00    +0.000 N 
DOCKED: ATOM     15  O   UNL     1      27.465 -15.697   0.776 -0.37 -0.00    +0.000 OA
DOCKED: ATOM     16  H   UNL     1      26.831 -13.222  -1.125 -0.00 -0.00    +0.000 HD
DOCKED: BRANCH  14  17
DOCKED: ATOM     17  C   UNL     1      27.083 -12.811   0.907 -0.24 -0.00    +0.000 A 
DOCKED: ATOM     18  C   UNL     1      27.945 -13.111   1.972 -0.22 -0.00    +0.000 A 
DOCKED: ATOM     19  C   UNL     1      27.915 -12.341   3.136 -0.25 -0.00    +0.000 A 
DOCKED: ATOM     20  C   UNL     1      27.011 -11.283   3.233 -0.19 +0.00    +0.000 A 
DOCKED: ATOM     21  N   UNL     1      26.163 -11.016   2.205 -0.38 +0.00    +0.000 NA
DOCKED: ATOM     22  C   UNL     1      26.174 -11.748   1.059 -0.32 +0.00    +0.000 A 
DOCKED: ENDBRANCH  14  17
DOCKED: ENDBRANCH  12  13
DOCKED: ENDBRANCH   1  12
DOCKED: TORSDOF 9
DOCKED: TER
DOCKED: ENDMDL
________________________________________________________________________________


	BEGINNING GENETIC ALGORITHM DOCKING 24 of 100
Run: 24 Seed: 787165773 2047554950 [ Run 24 of 100 GA/GALS ]
Beginning LAMARCKIAN GENETIC ALGORITHM (LGA), with a maximum of 2500000 energy evaluations.

Final-Value: -13.604


	FINAL GENETIC ALGORITHM DOCKED STATE
	_______________________________________________


Detailed state:  trans 23.361 -14.378 -2.505 quatxyzw -0.365866 0.609075 0.517566 0.476755 center -0.121 -0.193 0.463 ntor 9 19.7524 180.0000 -177.9874 159.2559 137.6353 49.5978 4.5787 111.6045 -20.3408
State:	 23.361 -14.378  -2.505  -0.416  0.693  0.589 123.053     19.75  180.00 -177.99  159.26  137.64   49.60    4.58  111.60  -20.34

DOCKED: MODEL       24
DOCKED: USER    Run = 24
DOCKED: USER    DPF = ligand_dock.biased.dpf
DOCKED: USER  
DOCKED: USER    Estimated Free Energy of Binding    =   -9.78 kcal/mol  [=(1)+(2)+(3)-(4)]
DOCKED: USER    Estimated Inhibition Constant, Ki   =   67.87 nM (nanomolar)  [Temperature = 298.15 K]
DOCKED: USER    
DOCKED: USER    (1) Final Intermolecular Energy     =  -12.46 kcal/mol
DOCKED: USER        vdW + Hbond + desolv Energy     =  -12.46 kcal/mol
DOCKED: USER        Electrostatic Energy            =   +0.00 kcal/mol
DOCKED: USER    (2) Final Total Internal Energy     =   -1.14 kcal/mol
DOCKED: USER    (3) Torsional Free Energy           =   +2.68 kcal/mol
DOCKED: USER    (4) Unbound System's Energy  [=(2)] =   -1.14 kcal/mol
DOCKED: USER    
DOCKED: USER    
DOCKED: USER    NEWDPF move ligand.pdbqt
DOCKED: USER    NEWDPF about -0.121000 -0.193000 0.463000
DOCKED: USER    NEWDPF tran0 23.360697 -14.377705 -2.505190
DOCKED: USER    NEWDPF quaternion0 -0.365866 0.609075 0.517566 0.476755
DOCKED: USER    NEWDPF axisangle0 -0.416212 0.692890 0.588788 123.052674
DOCKED: USER    NEWDPF quat0 -0.416212 0.692890 0.588788 123.052674
DOCKED: USER    NEWDPF dihe0 19.75 180.00 -177.99 159.26 137.64 49.60 4.58 111.60 -20.34 
DOCKED: USER  keepresnum = 1 
DOCKED: USER  
DOCKED: REMARK  Name = 
DOCKED: REMARK  9 active torsions:
DOCKED: REMARK  status: ('A' for Active; 'I' for Inactive)
DOCKED: REMARK    1  A    between atoms: C_2  and  C_5
DOCKED: REMARK    2  A    between atoms: N_3  and  O_4
DOCKED: REMARK    3  A    between atoms: C_5  and  C_6
DOCKED: REMARK    4  A    between atoms: C_6  and  C_7
DOCKED: REMARK    5  A    between atoms: C_7  and  C_8
DOCKED: REMARK    6  A    between atoms: C_8  and  C_9
DOCKED: REMARK    7  A    between atoms: C_9  and  C_10
DOCKED: REMARK    8  A    between atoms: C_10  and  C_11
DOCKED: REMARK    9  A    between atoms: N_12  and  C_13
DOCKED: REMARK                            x       y       z     vdW  Elec       q    Type
DOCKED: REMARK                         _______ _______ _______ _____ _____    ______ ____
DOCKED: USER                              x       y       z     vdW  Elec       q    Type
DOCKED: USER                           _______ _______ _______ _____ _____    ______ ____
DOCKED: ROOT
DOCKED: ATOM      1  C   UNL     1      26.114 -15.959  -2.993 -0.50 -0.00    +0.000 C 
DOCKED: ENDROOT
DOCKED: BRANCH   1   2
DOCKED: ATOM      2  C   UNL     1      25.224 -15.927  -1.741 -0.53 -0.00    +0.000 C 
DOCKED: BRANCH   2   3
DOCKED: ATOM      3  C   UNL     1      24.621 -17.310  -1.458 -0.69 -0.00    +0.000 C 
DOCKED: BRANCH   3   4
DOCKED: ATOM      4  C   UNL     1      23.131 -17.244  -1.079 -0.66 -0.00    +0.000 C 
DOCKED: BRANCH   4   5
DOCKED: ATOM      5  C   UNL     1      22.630 -18.444  -0.257 -0.82 -0.00    +0.000 C 
DOCKED: BRANCH   5   7
DOCKED: ATOM      6  O   UNL     1      20.261 -18.611   0.010 -1.36 -0.00    +0.000 OA
DOCKED: ATOM      7  C   UNL     1      21.267 -18.898  -0.693 -0.87 -0.00    +0.000 C 
DOCKED: ATOM      8  N   UNL     1      21.108 -19.673  -1.885 -0.57 -0.00    +0.000 N 
DOCKED: ATOM      9  H   UNL     1      21.895 -19.889  -2.435 -0.54 -0.00    +0.000 HD
DOCKED: BRANCH   8  10
DOCKED: ATOM     10  O   UNL     1      19.883 -20.110  -2.264 -1.77 -0.00    +0.000 OA
DOCKED: ATOM     11  H   UNL     1      19.200 -19.579  -1.827 -0.44 -0.00    +0.000 HD
DOCKED: ENDBRANCH   8  10
DOCKED: ENDBRANCH   5   7
DOCKED: ENDBRANCH   4   5
DOCKED: ENDBRANCH   3   4
DOCKED: ENDBRANCH   2   3
DOCKED: ENDBRANCH   1   2
DOCKED: BRANCH   1  12
DOCKED: ATOM     12  C   UNL     1      26.800 -14.611  -3.251 -0.37 -0.00    +0.000 C 
DOCKED: BRANCH  12  13
DOCKED: ATOM     13  C   UNL     1      25.963 -13.731  -4.135 -0.45 -0.00    +0.000 C 
DOCKED: ATOM     14  N   UNL     1      26.587 -12.712  -4.934 -0.27 -0.00    +0.000 N 
DOCKED: ATOM     15  O   UNL     1      24.713 -13.891  -4.162 -1.07 -0.00    +0.000 OA
DOCKED: ATOM     16  H   UNL     1      27.545 -12.806  -5.135 -0.00 -0.00    +0.000 HD
DOCKED: BRANCH  14  17
DOCKED: ATOM     17  C   UNL     1      25.897 -11.564  -5.456 -0.20 -0.00    +0.000 A 
DOCKED: ATOM     18  C   UNL     1      24.784 -11.054  -4.772 -0.35 -0.00    +0.000 A 
DOCKED: ATOM     19  C   UNL     1      24.086  -9.960  -5.285 -0.30 -0.00    +0.000 A 
DOCKED: ATOM     20  C   UNL     1      24.498  -9.391  -6.491 -0.31 -0.00    +0.000 A 
DOCKED: ATOM     21  N   UNL     1      25.562  -9.908  -7.159 -0.21 -0.00    +0.000 NA
DOCKED: ATOM     22  C   UNL     1      26.262 -10.971  -6.678 -0.17 -0.00    +0.000 A 
DOCKED: ENDBRANCH  14  17
DOCKED: ENDBRANCH  12  13
DOCKED: ENDBRANCH   1  12
DOCKED: TORSDOF 9
DOCKED: TER
DOCKED: ENDMDL
________________________________________________________________________________


	BEGINNING GENETIC ALGORITHM DOCKING 25 of 100
Run: 25 Seed: 1881709303 1668193625 [ Run 25 of 100 GA/GALS ]
Beginning LAMARCKIAN GENETIC ALGORITHM (LGA), with a maximum of 2500000 energy evaluations.

Final-Value: -13.922


	FINAL GENETIC ALGORITHM DOCKED STATE
	_______________________________________________


Detailed state:  trans 25.298 -15.092 -2.636 quatxyzw 0.857173 -0.354714 -0.339194 0.156142 center -0.121 -0.193 0.463 ntor 9 -4.4607 159.4541 -126.1620 145.1598 147.6435 -39.8635 137.0882 164.5580 -66.3720
State:	 25.298 -15.092  -2.636   0.868 -0.359 -0.343 162.034     -4.46  159.45 -126.16  145.16  147.64  -39.86  137.09  164.56  -66.37

DOCKED: MODEL       25
DOCKED: USER    Run = 25
DOCKED: USER    DPF = ligand_dock.biased.dpf
DOCKED: USER  
DOCKED: USER    Estimated Free Energy of Binding    =   -9.94 kcal/mol  [=(1)+(2)+(3)-(4)]
DOCKED: USER    Estimated Inhibition Constant, Ki   =   51.56 nM (nanomolar)  [Temperature = 298.15 K]
DOCKED: USER    
DOCKED: USER    (1) Final Intermolecular Energy     =  -12.63 kcal/mol
DOCKED: USER        vdW + Hbond + desolv Energy     =  -12.63 kcal/mol
DOCKED: USER        Electrostatic Energy            =   +0.00 kcal/mol
DOCKED: USER    (2) Final Total Internal Energy     =   -1.30 kcal/mol
DOCKED: USER    (3) Torsional Free Energy           =   +2.68 kcal/mol
DOCKED: USER    (4) Unbound System's Energy  [=(2)] =   -1.30 kcal/mol
DOCKED: USER    
DOCKED: USER    
DOCKED: USER    NEWDPF move ligand.pdbqt
DOCKED: USER    NEWDPF about -0.121000 -0.193000 0.463000
DOCKED: USER    NEWDPF tran0 25.297894 -15.091848 -2.635982
DOCKED: USER    NEWDPF quaternion0 0.857173 -0.354714 -0.339194 0.156142
DOCKED: USER    NEWDPF axisangle0 0.867817 -0.359119 -0.343406 162.033917
DOCKED: USER    NEWDPF quat0 0.867817 -0.359119 -0.343406 162.033917
DOCKED: USER    NEWDPF dihe0 -4.46 159.45 -126.16 145.16 147.64 -39.86 137.09 164.56 -66.37 
DOCKED: USER  keepresnum = 1 
DOCKED: USER  
DOCKED: REMARK  Name = 
DOCKED: REMARK  9 active torsions:
DOCKED: REMARK  status: ('A' for Active; 'I' for Inactive)
DOCKED: REMARK    1  A    between atoms: C_2  and  C_5
DOCKED: REMARK    2  A    between atoms: N_3  and  O_4
DOCKED: REMARK    3  A    between atoms: C_5  and  C_6
DOCKED: REMARK    4  A    between atoms: C_6  and  C_7
DOCKED: REMARK    5  A    between atoms: C_7  and  C_8
DOCKED: REMARK    6  A    between atoms: C_8  and  C_9
DOCKED: REMARK    7  A    between atoms: C_9  and  C_10
DOCKED: REMARK    8  A    between atoms: C_10  and  C_11
DOCKED: REMARK    9  A    between atoms: N_12  and  C_13
DOCKED: REMARK                            x       y       z     vdW  Elec       q    Type
DOCKED: REMARK                         _______ _______ _______ _____ _____    ______ ____
DOCKED: USER                              x       y       z     vdW  Elec       q    Type
DOCKED: USER                           _______ _______ _______ _____ _____    ______ ____
DOCKED: ROOT
DOCKED: ATOM      1  C   UNL     1      27.540 -16.511  -0.826 -0.41 -0.00    +0.000 C 
DOCKED: ENDROOT
DOCKED: BRANCH   1   2
DOCKED: ATOM      2  C   UNL     1      26.533 -17.147  -1.798 -0.41 -0.00    +0.000 C 
DOCKED: BRANCH   2   3
DOCKED: ATOM      3  C   UNL     1      25.501 -17.996  -1.042 -0.62 -0.00    +0.000 C 
DOCKED: BRANCH   3   4
DOCKED: ATOM      4  C   UNL     1      24.058 -17.737  -1.514 -0.72 -0.00    +0.000 C 
DOCKED: BRANCH   4   5
DOCKED: ATOM      5  C   UNL     1      22.998 -17.851  -0.406 -0.80 -0.00    +0.000 C 
DOCKED: BRANCH   5   7
DOCKED: ATOM      6  O   UNL     1      20.653 -17.498  -0.707 -2.09 +0.00    +0.000 OA
DOCKED: ATOM      7  C   UNL     1      21.651 -18.229  -0.951 -0.76 -0.00    +0.000 C 
DOCKED: ATOM      8  N   UNL     1      21.489 -19.423  -1.721 -0.61 -0.00    +0.000 N 
DOCKED: ATOM      9  H   UNL     1      22.271 -19.988  -1.915 -0.46 -0.00    +0.000 HD
DOCKED: BRANCH   8  10
DOCKED: ATOM     10  O   UNL     1      20.269 -19.783  -2.187 -1.86 -0.00    +0.000 OA
DOCKED: ATOM     11  H   UNL     1      19.601 -19.164  -1.853 -0.27 -0.00    +0.000 HD
DOCKED: ENDBRANCH   8  10
DOCKED: ENDBRANCH   5   7
DOCKED: ENDBRANCH   4   5
DOCKED: ENDBRANCH   3   4
DOCKED: ENDBRANCH   2   3
DOCKED: ENDBRANCH   1   2
DOCKED: BRANCH   1  12
DOCKED: ATOM     12  C   UNL     1      26.856 -15.925   0.416 -0.01 -0.00    +0.000 C 
DOCKED: BRANCH  12  13
DOCKED: ATOM     13  C   UNL     1      27.416 -14.576   0.765 -0.29 -0.00    +0.000 C 
DOCKED: ATOM     14  N   UNL     1      28.363 -14.446   1.838 -0.26 -0.00    +0.000 N 
DOCKED: ATOM     15  O   UNL     1      27.041 -13.564   0.115 -0.27 -0.00    +0.000 OA
DOCKED: ATOM     16  H   UNL     1      28.863 -15.248   2.112 -1.74 -0.00    +0.000 HD
DOCKED: BRANCH  14  17
DOCKED: ATOM     17  C   UNL     1      28.626 -13.217   2.535 -0.20 -0.00    +0.000 A 
DOCKED: ATOM     18  C   UNL     1      27.750 -12.793   3.545 -0.31 -0.00    +0.000 A 
DOCKED: ATOM     19  C   UNL     1      27.976 -11.586   4.207 -0.28 +0.00    +0.000 A 
DOCKED: ATOM     20  C   UNL     1      29.071 -10.801   3.844 -0.13 +0.00    +0.000 A 
DOCKED: ATOM     21  N   UNL     1      29.899 -11.208   2.847 -0.06 -0.00    +0.000 NA
DOCKED: ATOM     22  C   UNL     1      29.704 -12.382   2.189 -0.07 -0.00    +0.000 A 
DOCKED: ENDBRANCH  14  17
DOCKED: ENDBRANCH  12  13
DOCKED: ENDBRANCH   1  12
DOCKED: TORSDOF 9
DOCKED: TER
DOCKED: ENDMDL
________________________________________________________________________________


	BEGINNING GENETIC ALGORITHM DOCKING 26 of 100
Run: 26 Seed: 1288895299 1442271943 [ Run 26 of 100 GA/GALS ]
Beginning LAMARCKIAN GENETIC ALGORITHM (LGA), with a maximum of 2500000 energy evaluations.

Final-Value: -14.611


	FINAL GENETIC ALGORITHM DOCKED STATE
	_______________________________________________


Detailed state:  trans 25.563 -15.267 0.275 quatxyzw -0.014484 -0.157288 -0.798482 -0.580927 center -0.121 -0.193 0.463 ntor 9 -124.6992 -142.1905 -144.7946 151.0890 96.2174 161.9616 -27.3131 166.1911 166.8304
State:	 25.563 -15.267   0.275  -0.018 -0.193 -0.981 -108.968   -124.70 -142.19 -144.79  151.09   96.22  161.96  -27.31  166.19  166.83

DOCKED: MODEL       26
DOCKED: USER    Run = 26
DOCKED: USER    DPF = ligand_dock.biased.dpf
DOCKED: USER  
DOCKED: USER    Estimated Free Energy of Binding    =  -11.10 kcal/mol  [=(1)+(2)+(3)-(4)]
DOCKED: USER    Estimated Inhibition Constant, Ki   =    7.36 nM (nanomolar)  [Temperature = 298.15 K]
DOCKED: USER    
DOCKED: USER    (1) Final Intermolecular Energy     =  -13.78 kcal/mol
DOCKED: USER        vdW + Hbond + desolv Energy     =  -13.78 kcal/mol
DOCKED: USER        Electrostatic Energy            =   +0.00 kcal/mol
DOCKED: USER    (2) Final Total Internal Energy     =   -0.83 kcal/mol
DOCKED: USER    (3) Torsional Free Energy           =   +2.68 kcal/mol
DOCKED: USER    (4) Unbound System's Energy  [=(2)] =   -0.83 kcal/mol
DOCKED: USER    
DOCKED: USER    
DOCKED: USER    NEWDPF move ligand.pdbqt
DOCKED: USER    NEWDPF about -0.121000 -0.193000 0.463000
DOCKED: USER    NEWDPF tran0 25.563086 -15.266993 0.275421
DOCKED: USER    NEWDPF quaternion0 -0.014484 -0.157288 -0.798482 -0.580927
DOCKED: USER    NEWDPF axisangle0 -0.017795 -0.193239 -0.980990 -108.968417
DOCKED: USER    NEWDPF quat0 -0.017795 -0.193239 -0.980990 -108.968417
DOCKED: USER    NEWDPF dihe0 -124.70 -142.19 -144.79 151.09 96.22 161.96 -27.31 166.19 166.83 
DOCKED: USER  keepresnum = 1 
DOCKED: USER  
DOCKED: REMARK  Name = 
DOCKED: REMARK  9 active torsions:
DOCKED: REMARK  status: ('A' for Active; 'I' for Inactive)
DOCKED: REMARK    1  A    between atoms: C_2  and  C_5
DOCKED: REMARK    2  A    between atoms: N_3  and  O_4
DOCKED: REMARK    3  A    between atoms: C_5  and  C_6
DOCKED: REMARK    4  A    between atoms: C_6  and  C_7
DOCKED: REMARK    5  A    between atoms: C_7  and  C_8
DOCKED: REMARK    6  A    between atoms: C_8  and  C_9
DOCKED: REMARK    7  A    between atoms: C_9  and  C_10
DOCKED: REMARK    8  A    between atoms: C_10  and  C_11
DOCKED: REMARK    9  A    between atoms: N_12  and  C_13
DOCKED: REMARK                            x       y       z     vdW  Elec       q    Type
DOCKED: REMARK                         _______ _______ _______ _____ _____    ______ ____
DOCKED: USER                              x       y       z     vdW  Elec       q    Type
DOCKED: USER                           _______ _______ _______ _____ _____    ______ ____
DOCKED: ROOT
DOCKED: ATOM      1  C   UNL     1      25.241 -16.486  -2.679 -0.49 -0.00    +0.000 C 
DOCKED: ENDROOT
DOCKED: BRANCH   1   2
DOCKED: ATOM      2  C   UNL     1      26.062 -17.020  -1.495 -0.55 -0.00    +0.000 C 
DOCKED: BRANCH   2   3
DOCKED: ATOM      3  C   UNL     1      25.181 -17.836  -0.537 -0.70 -0.00    +0.000 C 
DOCKED: BRANCH   3   4
DOCKED: ATOM      4  C   UNL     1      23.693 -17.455  -0.626 -0.73 -0.00    +0.000 C 
DOCKED: BRANCH   4   5
DOCKED: ATOM      5  C   UNL     1      22.732 -18.499  -0.034 -0.78 -0.00    +0.000 C 
DOCKED: BRANCH   5   7
DOCKED: ATOM      6  O   UNL     1      20.650 -17.543  -0.713 -2.12 +0.00    +0.000 OA
DOCKED: ATOM      7  C   UNL     1      21.421 -18.539  -0.763 -0.85 -0.00    +0.000 C 
DOCKED: ATOM      8  N   UNL     1      21.031 -19.706  -1.492 -0.74 -0.00    +0.000 N 
DOCKED: ATOM      9  H   UNL     1      21.639 -20.480  -1.534 -0.31 -0.00    +0.000 HD
DOCKED: BRANCH   8  10
DOCKED: ATOM     10  O   UNL     1      19.835 -19.756  -2.125 -1.84 -0.00    +0.000 OA
DOCKED: ATOM     11  H   UNL     1      19.340 -20.532  -1.820 -0.58 -0.00    +0.000 HD
DOCKED: ENDBRANCH   8  10
DOCKED: ENDBRANCH   5   7
DOCKED: ENDBRANCH   4   5
DOCKED: ENDBRANCH   3   4
DOCKED: ENDBRANCH   2   3
DOCKED: ENDBRANCH   1   2
DOCKED: BRANCH   1  12
DOCKED: ATOM     12  C   UNL     1      25.816 -15.179  -3.241 -0.54 -0.00    +0.000 C 
DOCKED: BRANCH  12  13
DOCKED: ATOM     13  C   UNL     1      26.696 -15.436  -4.431 -0.49 -0.00    +0.000 C 
DOCKED: ATOM     14  N   UNL     1      28.124 -15.456  -4.279 -0.32 -0.00    +0.000 N 
DOCKED: ATOM     15  O   UNL     1      26.169 -15.624  -5.560 -1.18 +0.00    +0.000 OA
DOCKED: ATOM     16  H   UNL     1      28.490 -15.618  -3.380 -0.00 -0.00    +0.000 HD
DOCKED: BRANCH  14  17
DOCKED: ATOM     17  C   UNL     1      29.052 -15.254  -5.359 -0.30 -0.00    +0.000 A 
DOCKED: ATOM     18  C   UNL     1      29.049 -14.038  -6.056 -0.26 -0.00    +0.000 A 
DOCKED: ATOM     19  C   UNL     1      29.922 -13.841  -7.127 -0.23 -0.00    +0.000 A 
DOCKED: ATOM     20  C   UNL     1      30.784 -14.871  -7.504 -0.22 -0.00    +0.000 A 
DOCKED: ATOM     21  N   UNL     1      30.763 -16.055  -6.837 -0.27 -0.00    +0.000 NA
DOCKED: ATOM     22  C   UNL     1      29.924 -16.271  -5.788 -0.30 -0.00    +0.000 A 
DOCKED: ENDBRANCH  14  17
DOCKED: ENDBRANCH  12  13
DOCKED: ENDBRANCH   1  12
DOCKED: TORSDOF 9
DOCKED: TER
DOCKED: ENDMDL
________________________________________________________________________________


	BEGINNING GENETIC ALGORITHM DOCKING 27 of 100
Run: 27 Seed: 1574396026 1629246358 [ Run 27 of 100 GA/GALS ]
Beginning LAMARCKIAN GENETIC ALGORITHM (LGA), with a maximum of 2500000 energy evaluations.

Final-Value: -13.503


	FINAL GENETIC ALGORITHM DOCKED STATE
	_______________________________________________


Detailed state:  trans 25.628 -19.036 -3.239 quatxyzw 0.285449 -0.919955 0.262364 -0.058019 center -0.121 -0.193 0.463 ntor 9 -10.8771 -67.2943 -115.3345 179.9369 155.5964 -59.6646 -7.2742 -174.5225 97.8205
State:	 25.628 -19.036  -3.239   0.286 -0.922  0.263 -173.348    -10.88  -67.29 -115.33  179.94  155.60  -59.66   -7.27 -174.52   97.82

DOCKED: MODEL       27
DOCKED: USER    Run = 27
DOCKED: USER    DPF = ligand_dock.biased.dpf
DOCKED: USER  
DOCKED: USER    Estimated Free Energy of Binding    =   -9.51 kcal/mol  [=(1)+(2)+(3)-(4)]
DOCKED: USER    Estimated Inhibition Constant, Ki   =  106.82 nM (nanomolar)  [Temperature = 298.15 K]
DOCKED: USER    
DOCKED: USER    (1) Final Intermolecular Energy     =  -12.20 kcal/mol
DOCKED: USER        vdW + Hbond + desolv Energy     =  -12.20 kcal/mol
DOCKED: USER        Electrostatic Energy            =   +0.00 kcal/mol
DOCKED: USER    (2) Final Total Internal Energy     =   -1.31 kcal/mol
DOCKED: USER    (3) Torsional Free Energy           =   +2.68 kcal/mol
DOCKED: USER    (4) Unbound System's Energy  [=(2)] =   -1.31 kcal/mol
DOCKED: USER    
DOCKED: USER    
DOCKED: USER    NEWDPF move ligand.pdbqt
DOCKED: USER    NEWDPF about -0.121000 -0.193000 0.463000
DOCKED: USER    NEWDPF tran0 25.627780 -19.035946 -3.239094
DOCKED: USER    NEWDPF quaternion0 0.285449 -0.919955 0.262364 -0.058019
DOCKED: USER    NEWDPF axisangle0 0.285931 -0.921508 0.262807 -173.347724
DOCKED: USER    NEWDPF quat0 0.285931 -0.921508 0.262807 -173.347724
DOCKED: USER    NEWDPF dihe0 -10.88 -67.29 -115.33 179.94 155.60 -59.66 -7.27 -174.52 97.82 
DOCKED: USER  keepresnum = 1 
DOCKED: USER  
DOCKED: REMARK  Name = 
DOCKED: REMARK  9 active torsions:
DOCKED: REMARK  status: ('A' for Active; 'I' for Inactive)
DOCKED: REMARK    1  A    between atoms: C_2  and  C_5
DOCKED: REMARK    2  A    between atoms: N_3  and  O_4
DOCKED: REMARK    3  A    between atoms: C_5  and  C_6
DOCKED: REMARK    4  A    between atoms: C_6  and  C_7
DOCKED: REMARK    5  A    between atoms: C_7  and  C_8
DOCKED: REMARK    6  A    between atoms: C_8  and  C_9
DOCKED: REMARK    7  A    between atoms: C_9  and  C_10
DOCKED: REMARK    8  A    between atoms: C_10  and  C_11
DOCKED: REMARK    9  A    between atoms: N_12  and  C_13
DOCKED: REMARK                            x       y       z     vdW  Elec       q    Type
DOCKED: REMARK                         _______ _______ _______ _____ _____    ______ ____
DOCKED: USER                              x       y       z     vdW  Elec       q    Type
DOCKED: USER                           _______ _______ _______ _____ _____    ______ ____
DOCKED: ROOT
DOCKED: ATOM      1  C   UNL     1      25.344 -18.213  -0.147 -0.68 -0.00    +0.000 C 
DOCKED: ENDROOT
DOCKED: BRANCH   1   2
DOCKED: ATOM      2  C   UNL     1      24.329 -18.053  -1.290 -0.74 -0.00    +0.000 C 
DOCKED: BRANCH   2   3
DOCKED: ATOM      3  C   UNL     1      23.231 -19.122  -1.205 -0.77 -0.00    +0.000 C 
DOCKED: BRANCH   3   4
DOCKED: ATOM      4  C   UNL     1      21.842 -18.528  -0.909 -0.83 -0.00    +0.000 C 
DOCKED: BRANCH   4   5
DOCKED: ATOM      5  C   UNL     1      21.009 -19.332   0.103 -0.78 -0.00    +0.000 C 
DOCKED: BRANCH   5   7
DOCKED: ATOM      6  O   UNL     1      19.539 -19.735  -1.738 -1.66 -0.00    +0.000 OA
DOCKED: ATOM      7  C   UNL     1      19.732 -19.844  -0.497 -0.83 -0.00    +0.000 C 
DOCKED: ATOM      8  N   UNL     1      18.725 -20.431   0.333 -0.74 -0.00    +0.000 N 
DOCKED: ATOM      9  H   UNL     1      18.882 -20.521   1.300 -0.04 -0.00    +0.000 HD
DOCKED: BRANCH   8  10
DOCKED: ATOM     10  O   UNL     1      17.559 -20.865  -0.202 -0.82 -0.00    +0.000 OA
DOCKED: ATOM     11  H   UNL     1      17.488 -20.555  -1.118 -0.33 -0.00    +0.000 HD
DOCKED: ENDBRANCH   8  10
DOCKED: ENDBRANCH   5   7
DOCKED: ENDBRANCH   4   5
DOCKED: ENDBRANCH   3   4
DOCKED: ENDBRANCH   2   3
DOCKED: ENDBRANCH   1   2
DOCKED: BRANCH   1  12
DOCKED: ATOM     12  C   UNL     1      26.560 -17.293  -0.318 -0.56 -0.00    +0.000 C 
DOCKED: BRANCH  12  13
DOCKED: ATOM     13  C   UNL     1      26.206 -16.057  -1.094 -0.47 -0.00    +0.000 C 
DOCKED: ATOM     14  N   UNL     1      26.134 -16.103  -2.528 -0.45 -0.00    +0.000 N 
DOCKED: ATOM     15  O   UNL     1      25.982 -14.981  -0.475 -0.41 -0.00    +0.000 OA
DOCKED: ATOM     16  H   UNL     1      26.004 -16.979  -2.955 -0.03 -0.00    +0.000 HD
DOCKED: BRANCH  14  17
DOCKED: ATOM     17  C   UNL     1      26.241 -14.947  -3.377 -0.44 -0.00    +0.000 A 
DOCKED: ATOM     18  C   UNL     1      27.499 -14.556  -3.859 -0.28 -0.00    +0.000 A 
DOCKED: ATOM     19  C   UNL     1      27.621 -13.418  -4.657 -0.22 -0.00    +0.000 A 
DOCKED: ATOM     20  C   UNL     1      26.483 -12.668  -4.957 -0.21 -0.00    +0.000 A 
DOCKED: ATOM     21  N   UNL     1      25.273 -13.042  -4.465 -0.45 -0.00    +0.000 NA
DOCKED: ATOM     22  C   UNL     1      25.126 -14.148  -3.689 -0.44 -0.00    +0.000 A 
DOCKED: ENDBRANCH  14  17
DOCKED: ENDBRANCH  12  13
DOCKED: ENDBRANCH   1  12
DOCKED: TORSDOF 9
DOCKED: TER
DOCKED: ENDMDL
________________________________________________________________________________


	BEGINNING GENETIC ALGORITHM DOCKING 28 of 100
Run: 28 Seed: 1880227896 1703849694 [ Run 28 of 100 GA/GALS ]
Beginning LAMARCKIAN GENETIC ALGORITHM (LGA), with a maximum of 2500000 energy evaluations.

Final-Value: -13.825


	FINAL GENETIC ALGORITHM DOCKED STATE
	_______________________________________________


Detailed state:  trans 27.768 -14.662 -2.690 quatxyzw 0.280571 -0.870620 -0.301528 0.269037 center -0.121 -0.193 0.463 ntor 9 0.6992 -119.8833 -175.9107 -177.4533 -178.2292 -86.2566 33.2811 36.8143 57.7600
State:	 27.768 -14.662  -2.690   0.291 -0.904 -0.313 148.786      0.70 -119.88 -175.91 -177.45 -178.23  -86.26   33.28   36.81   57.76

DOCKED: MODEL       28
DOCKED: USER    Run = 28
DOCKED: USER    DPF = ligand_dock.biased.dpf
DOCKED: USER  
DOCKED: USER    Estimated Free Energy of Binding    =   -9.86 kcal/mol  [=(1)+(2)+(3)-(4)]
DOCKED: USER    Estimated Inhibition Constant, Ki   =   59.55 nM (nanomolar)  [Temperature = 298.15 K]
DOCKED: USER    
DOCKED: USER    (1) Final Intermolecular Energy     =  -12.54 kcal/mol
DOCKED: USER        vdW + Hbond + desolv Energy     =  -12.54 kcal/mol
DOCKED: USER        Electrostatic Energy            =   +0.00 kcal/mol
DOCKED: USER    (2) Final Total Internal Energy     =   -1.28 kcal/mol
DOCKED: USER    (3) Torsional Free Energy           =   +2.68 kcal/mol
DOCKED: USER    (4) Unbound System's Energy  [=(2)] =   -1.28 kcal/mol
DOCKED: USER    
DOCKED: USER    
DOCKED: USER    NEWDPF move ligand.pdbqt
DOCKED: USER    NEWDPF about -0.121000 -0.193000 0.463000
DOCKED: USER    NEWDPF tran0 27.767658 -14.662285 -2.689706
DOCKED: USER    NEWDPF quaternion0 0.280571 -0.870620 -0.301528 0.269037
DOCKED: USER    NEWDPF axisangle0 0.291312 -0.903949 -0.313071 148.786050
DOCKED: USER    NEWDPF quat0 0.291312 -0.903949 -0.313071 148.786050
DOCKED: USER    NEWDPF dihe0 0.70 -119.88 -175.91 -177.45 -178.23 -86.26 33.28 36.81 57.76 
DOCKED: USER  keepresnum = 1 
DOCKED: USER  
DOCKED: REMARK  Name = 
DOCKED: REMARK  9 active torsions:
DOCKED: REMARK  status: ('A' for Active; 'I' for Inactive)
DOCKED: REMARK    1  A    between atoms: C_2  and  C_5
DOCKED: REMARK    2  A    between atoms: N_3  and  O_4
DOCKED: REMARK    3  A    between atoms: C_5  and  C_6
DOCKED: REMARK    4  A    between atoms: C_6  and  C_7
DOCKED: REMARK    5  A    between atoms: C_7  and  C_8
DOCKED: REMARK    6  A    between atoms: C_8  and  C_9
DOCKED: REMARK    7  A    between atoms: C_9  and  C_10
DOCKED: REMARK    8  A    between atoms: C_10  and  C_11
DOCKED: REMARK    9  A    between atoms: N_12  and  C_13
DOCKED: REMARK                            x       y       z     vdW  Elec       q    Type
DOCKED: REMARK                         _______ _______ _______ _____ _____    ______ ____
DOCKED: USER                              x       y       z     vdW  Elec       q    Type
DOCKED: USER                           _______ _______ _______ _____ _____    ______ ____
DOCKED: ROOT
DOCKED: ATOM      1  C   UNL     1      26.839 -17.383  -1.257 -0.47 -0.00    +0.000 C 
DOCKED: ENDROOT
DOCKED: BRANCH   1   2
DOCKED: ATOM      2  C   UNL     1      25.991 -16.175  -1.684 -0.51 -0.00    +0.000 C 
DOCKED: BRANCH   2   3
DOCKED: ATOM      3  C   UNL     1      24.614 -16.621  -2.196 -0.42 -0.00    +0.000 C 
DOCKED: BRANCH   3   4
DOCKED: ATOM      4  C   UNL     1      23.573 -16.749  -1.069 -0.53 -0.00    +0.000 C 
DOCKED: BRANCH   4   5
DOCKED: ATOM      5  C   UNL     1      23.116 -18.189  -0.785 -0.82 -0.00    +0.000 C 
DOCKED: BRANCH   5   7
DOCKED: ATOM      6  O   UNL     1      20.824 -17.518  -0.708 -2.10 +0.00    +0.000 OA
DOCKED: ATOM      7  C   UNL     1      21.658 -18.387  -1.079 -0.75 -0.00    +0.000 C 
DOCKED: ATOM      8  N   UNL     1      21.208 -19.565  -1.755 -0.62 -0.00    +0.000 N 
DOCKED: ATOM      9  H   UNL     1      21.862 -20.238  -2.050 -0.50 -0.00    +0.000 HD
DOCKED: BRANCH   8  10
DOCKED: ATOM     10  O   UNL     1      19.889 -19.761  -1.994 -1.88 -0.00    +0.000 OA
DOCKED: ATOM     11  H   UNL     1      19.383 -19.007  -1.654 -0.38 -0.00    +0.000 HD
DOCKED: ENDBRANCH   8  10
DOCKED: ENDBRANCH   5   7
DOCKED: ENDBRANCH   4   5
DOCKED: ENDBRANCH   3   4
DOCKED: ENDBRANCH   2   3
DOCKED: ENDBRANCH   1   2
DOCKED: BRANCH   1  12
DOCKED: ATOM     12  C   UNL     1      27.780 -17.047  -0.092 -0.25 -0.00    +0.000 C 
DOCKED: BRANCH  12  13
DOCKED: ATOM     13  C   UNL     1      27.856 -15.566   0.141 -0.30 -0.00    +0.000 C 
DOCKED: ATOM     14  N   UNL     1      27.686 -15.036   1.466 -0.23 -0.00    +0.000 N 
DOCKED: ATOM     15  O   UNL     1      28.063 -14.796  -0.835 -0.19 -0.00    +0.000 OA
DOCKED: ATOM     16  H   UNL     1      27.837 -15.640   2.227 -0.83 -0.00    +0.000 HD
DOCKED: BRANCH  14  17
DOCKED: ATOM     17  C   UNL     1      27.307 -13.677   1.747 -0.27 -0.00    +0.000 A 
DOCKED: ATOM     18  C   UNL     1      26.494 -12.984   0.840 -0.30 -0.00    +0.000 A 
DOCKED: ATOM     19  C   UNL     1      26.146 -11.654   1.085 -0.32 +0.00    +0.000 A 
DOCKED: ATOM     20  C   UNL     1      26.628 -11.022   2.232 -0.31 +0.00    +0.000 A 
DOCKED: ATOM     21  N   UNL     1      27.436 -11.696   3.092 -0.27 +0.00    +0.000 NA
DOCKED: ATOM     22  C   UNL     1      27.786 -12.992   2.878 -0.28 -0.00    +0.000 A 
DOCKED: ENDBRANCH  14  17
DOCKED: ENDBRANCH  12  13
DOCKED: ENDBRANCH   1  12
DOCKED: TORSDOF 9
DOCKED: TER
DOCKED: ENDMDL
________________________________________________________________________________


	BEGINNING GENETIC ALGORITHM DOCKING 29 of 100
Run: 29 Seed: 567978141 607677076 [ Run 29 of 100 GA/GALS ]
Beginning LAMARCKIAN GENETIC ALGORITHM (LGA), with a maximum of 2500000 energy evaluations.

Final-Value: -14.999


	FINAL GENETIC ALGORITHM DOCKED STATE
	_______________________________________________


Detailed state:  trans 25.951 -15.061 0.282 quatxyzw -0.026051 -0.164698 -0.835838 -0.523039 center -0.121 -0.193 0.463 ntor 9 -6.0238 -167.9398 -163.7631 125.5519 131.3261 178.2277 -12.0051 179.5233 168.0751
State:	 25.951 -15.061   0.282  -0.031 -0.193 -0.981 -116.927     -6.02 -167.94 -163.76  125.55  131.33  178.23  -12.01  179.52  168.08

DOCKED: MODEL       29
DOCKED: USER    Run = 29
DOCKED: USER    DPF = ligand_dock.biased.dpf
DOCKED: USER  
DOCKED: USER    Estimated Free Energy of Binding    =  -11.01 kcal/mol  [=(1)+(2)+(3)-(4)]
DOCKED: USER    Estimated Inhibition Constant, Ki   =    8.50 nM (nanomolar)  [Temperature = 298.15 K]
DOCKED: USER    
DOCKED: USER    (1) Final Intermolecular Energy     =  -13.69 kcal/mol
DOCKED: USER        vdW + Hbond + desolv Energy     =  -13.69 kcal/mol
DOCKED: USER        Electrostatic Energy            =   +0.00 kcal/mol
DOCKED: USER    (2) Final Total Internal Energy     =   -1.30 kcal/mol
DOCKED: USER    (3) Torsional Free Energy           =   +2.68 kcal/mol
DOCKED: USER    (4) Unbound System's Energy  [=(2)] =   -1.30 kcal/mol
DOCKED: USER    
DOCKED: USER    
DOCKED: USER    NEWDPF move ligand.pdbqt
DOCKED: USER    NEWDPF about -0.121000 -0.193000 0.463000
DOCKED: USER    NEWDPF tran0 25.951064 -15.061430 0.281585
DOCKED: USER    NEWDPF quaternion0 -0.026051 -0.164698 -0.835838 -0.523039
DOCKED: USER    NEWDPF axisangle0 -0.030565 -0.193237 -0.980676 -116.927288
DOCKED: USER    NEWDPF quat0 -0.030565 -0.193237 -0.980676 -116.927288
DOCKED: USER    NEWDPF dihe0 -6.02 -167.94 -163.76 125.55 131.33 178.23 -12.01 179.52 168.08 
DOCKED: USER  keepresnum = 1 
DOCKED: USER  
DOCKED: REMARK  Name = 
DOCKED: REMARK  9 active torsions:
DOCKED: REMARK  status: ('A' for Active; 'I' for Inactive)
DOCKED: REMARK    1  A    between atoms: C_2  and  C_5
DOCKED: REMARK    2  A    between atoms: N_3  and  O_4
DOCKED: REMARK    3  A    between atoms: C_5  and  C_6
DOCKED: REMARK    4  A    between atoms: C_6  and  C_7
DOCKED: REMARK    5  A    between atoms: C_7  and  C_8
DOCKED: REMARK    6  A    between atoms: C_8  and  C_9
DOCKED: REMARK    7  A    between atoms: C_9  and  C_10
DOCKED: REMARK    8  A    between atoms: C_10  and  C_11
DOCKED: REMARK    9  A    between atoms: N_12  and  C_13
DOCKED: REMARK                            x       y       z     vdW  Elec       q    Type
DOCKED: REMARK                         _______ _______ _______ _____ _____    ______ ____
DOCKED: USER                              x       y       z     vdW  Elec       q    Type
DOCKED: USER                           _______ _______ _______ _____ _____    ______ ____
DOCKED: ROOT
DOCKED: ATOM      1  C   UNL     1      25.487 -16.271  -2.658 -0.55 -0.00    +0.000 C 
DOCKED: ENDROOT
DOCKED: BRANCH   1   2
DOCKED: ATOM      2  C   UNL     1      26.216 -16.894  -1.457 -0.54 -0.00    +0.000 C 
DOCKED: BRANCH   2   3
DOCKED: ATOM      3  C   UNL     1      25.303 -17.874  -0.707 -0.70 -0.00    +0.000 C 
DOCKED: BRANCH   3   4
DOCKED: ATOM      4  C   UNL     1      23.851 -17.844  -1.216 -0.77 -0.00    +0.000 C 
DOCKED: BRANCH   4   5
DOCKED: ATOM      5  C   UNL     1      22.827 -18.470  -0.255 -0.82 -0.00    +0.000 C 
DOCKED: BRANCH   5   7
DOCKED: ATOM      6  O   UNL     1      20.636 -17.628  -0.707 -2.19 +0.00    +0.000 OA
DOCKED: ATOM      7  C   UNL     1      21.460 -18.567  -0.870 -0.83 -0.00    +0.000 C 
DOCKED: ATOM      8  N   UNL     1      21.082 -19.727  -1.617 -0.68 -0.00    +0.000 N 
DOCKED: ATOM      9  H   UNL     1      21.730 -20.456  -1.747 -0.39 -0.00    +0.000 HD
DOCKED: BRANCH   8  10
DOCKED: ATOM     10  O   UNL     1      19.839 -19.831  -2.146 -1.82 -0.00    +0.000 OA
DOCKED: ATOM     11  H   UNL     1      19.299 -19.082  -1.850 -0.45 -0.00    +0.000 HD
DOCKED: ENDBRANCH   8  10
DOCKED: ENDBRANCH   5   7
DOCKED: ENDBRANCH   4   5
DOCKED: ENDBRANCH   3   4
DOCKED: ENDBRANCH   2   3
DOCKED: ENDBRANCH   1   2
DOCKED: BRANCH   1  12
DOCKED: ATOM     12  C   UNL     1      26.243 -15.066  -3.233 -0.49 -0.00    +0.000 C 
DOCKED: BRANCH  12  13
DOCKED: ATOM     13  C   UNL     1      27.065 -15.454  -4.428 -0.44 -0.00    +0.000 C 
DOCKED: ATOM     14  N   UNL     1      28.399 -15.959  -4.251 -0.31 -0.00    +0.000 N 
DOCKED: ATOM     15  O   UNL     1      26.577 -15.326  -5.583 -1.17 +0.00    +0.000 OA
DOCKED: ATOM     16  H   UNL     1      28.637 -16.336  -3.374 -0.01 -0.00    +0.000 HD
DOCKED: BRANCH  14  17
DOCKED: ATOM     17  C   UNL     1      29.407 -15.947  -5.276 -0.29 -0.00    +0.000 A 
DOCKED: ATOM     18  C   UNL     1      29.560 -14.811  -6.083 -0.28 -0.00    +0.000 A 
DOCKED: ATOM     19  C   UNL     1      30.513 -14.798  -7.103 -0.24 -0.00    +0.000 A 
DOCKED: ATOM     20  C   UNL     1      31.298 -15.931  -7.319 -0.23 -0.00    +0.000 A 
DOCKED: ATOM     21  N   UNL     1      31.125 -17.036  -6.547 -0.24 -0.00    +0.000 NA
DOCKED: ATOM     22  C   UNL     1      30.207 -17.073  -5.545 -0.29 -0.00    +0.000 A 
DOCKED: ENDBRANCH  14  17
DOCKED: ENDBRANCH  12  13
DOCKED: ENDBRANCH   1  12
DOCKED: TORSDOF 9
DOCKED: TER
DOCKED: ENDMDL
________________________________________________________________________________


	BEGINNING GENETIC ALGORITHM DOCKING 30 of 100
Run: 30 Seed: 775118386 410540782 [ Run 30 of 100 GA/GALS ]
Beginning LAMARCKIAN GENETIC ALGORITHM (LGA), with a maximum of 2500000 energy evaluations.

Final-Value: -14.562


	FINAL GENETIC ALGORITHM DOCKED STATE
	_______________________________________________


Detailed state:  trans 23.929 -15.418 1.387 quatxyzw 0.417253 -0.155473 -0.888372 0.111907 center -0.121 -0.193 0.463 ntor 9 -0.8913 121.5017 -168.4911 82.4756 -98.1897 24.6353 121.2303 49.0889 -55.5682
State:	 23.929 -15.418   1.387   0.420 -0.156 -0.894 167.150     -0.89  121.50 -168.49   82.48  -98.19   24.64  121.23   49.09  -55.57

DOCKED: MODEL       30
DOCKED: USER    Run = 30
DOCKED: USER    DPF = ligand_dock.biased.dpf
DOCKED: USER  
DOCKED: USER    Estimated Free Energy of Binding    =  -10.58 kcal/mol  [=(1)+(2)+(3)-(4)]
DOCKED: USER    Estimated Inhibition Constant, Ki   =   17.60 nM (nanomolar)  [Temperature = 298.15 K]
DOCKED: USER    
DOCKED: USER    (1) Final Intermolecular Energy     =  -13.26 kcal/mol
DOCKED: USER        vdW + Hbond + desolv Energy     =  -13.26 kcal/mol
DOCKED: USER        Electrostatic Energy            =   +0.00 kcal/mol
DOCKED: USER    (2) Final Total Internal Energy     =   -1.30 kcal/mol
DOCKED: USER    (3) Torsional Free Energy           =   +2.68 kcal/mol
DOCKED: USER    (4) Unbound System's Energy  [=(2)] =   -1.30 kcal/mol
DOCKED: USER    
DOCKED: USER    
DOCKED: USER    NEWDPF move ligand.pdbqt
DOCKED: USER    NEWDPF about -0.121000 -0.193000 0.463000
DOCKED: USER    NEWDPF tran0 23.928992 -15.417864 1.386716
DOCKED: USER    NEWDPF quaternion0 0.417253 -0.155473 -0.888372 0.111907
DOCKED: USER    NEWDPF axisangle0 0.419891 -0.156455 -0.893987 167.149538
DOCKED: USER    NEWDPF quat0 0.419891 -0.156455 -0.893987 167.149538
DOCKED: USER    NEWDPF dihe0 -0.89 121.50 -168.49 82.48 -98.19 24.64 121.23 49.09 -55.57 
DOCKED: USER  keepresnum = 1 
DOCKED: USER  
DOCKED: REMARK  Name = 
DOCKED: REMARK  9 active torsions:
DOCKED: REMARK  status: ('A' for Active; 'I' for Inactive)
DOCKED: REMARK    1  A    between atoms: C_2  and  C_5
DOCKED: REMARK    2  A    between atoms: N_3  and  O_4
DOCKED: REMARK    3  A    between atoms: C_5  and  C_6
DOCKED: REMARK    4  A    between atoms: C_6  and  C_7
DOCKED: REMARK    5  A    between atoms: C_7  and  C_8
DOCKED: REMARK    6  A    between atoms: C_8  and  C_9
DOCKED: REMARK    7  A    between atoms: C_9  and  C_10
DOCKED: REMARK    8  A    between atoms: C_10  and  C_11
DOCKED: REMARK    9  A    between atoms: N_12  and  C_13
DOCKED: REMARK                            x       y       z     vdW  Elec       q    Type
DOCKED: REMARK                         _______ _______ _______ _____ _____    ______ ____
DOCKED: USER                              x       y       z     vdW  Elec       q    Type
DOCKED: USER                           _______ _______ _______ _____ _____    ______ ____
DOCKED: ROOT
DOCKED: ATOM      1  C   UNL     1      25.933 -15.905  -1.076 -0.48 -0.00    +0.000 C 
DOCKED: ENDROOT
DOCKED: BRANCH   1   2
DOCKED: ATOM      2  C   UNL     1      24.646 -16.661  -0.710 -0.55 -0.00    +0.000 C 
DOCKED: BRANCH   2   3
DOCKED: ATOM      3  C   UNL     1      24.892 -18.175  -0.658 -0.73 -0.00    +0.000 C 
DOCKED: BRANCH   3   4
DOCKED: ATOM      4  C   UNL     1      23.592 -18.994  -0.751 -0.78 -0.00    +0.000 C 
DOCKED: BRANCH   4   5
DOCKED: ATOM      5  C   UNL     1      22.366 -18.313  -0.119 -0.81 -0.00    +0.000 C 
DOCKED: BRANCH   5   7
DOCKED: ATOM      6  O   UNL     1      20.095 -17.860  -0.711 -2.06 +0.00    +0.000 OA
DOCKED: ATOM      7  C   UNL     1      21.107 -18.591  -0.888 -0.82 -0.00    +0.000 C 
DOCKED: ATOM      8  N   UNL     1      21.042 -19.692  -1.799 -0.66 -0.00    +0.000 N 
DOCKED: ATOM      9  H   UNL     1      21.836 -20.256  -1.939 -0.48 -0.00    +0.000 HD
DOCKED: BRANCH   8  10
DOCKED: ATOM     10  O   UNL     1      19.897 -19.964  -2.470 -1.70 -0.00    +0.000 OA
DOCKED: ATOM     11  H   UNL     1      19.212 -19.328  -2.211 -0.46 -0.00    +0.000 HD
DOCKED: ENDBRANCH   8  10
DOCKED: ENDBRANCH   5   7
DOCKED: ENDBRANCH   4   5
DOCKED: ENDBRANCH   3   4
DOCKED: ENDBRANCH   2   3
DOCKED: ENDBRANCH   1   2
DOCKED: BRANCH   1  12
DOCKED: ATOM     12  C   UNL     1      27.059 -16.153  -0.063 -0.39 -0.00    +0.000 C 
DOCKED: BRANCH  12  13
DOCKED: ATOM     13  C   UNL     1      27.603 -14.862   0.477 -0.29 -0.00    +0.000 C 
DOCKED: ATOM     14  N   UNL     1      28.001 -14.770   1.854 -0.24 -0.00    +0.000 N 
DOCKED: ATOM     15  O   UNL     1      27.699 -13.864  -0.287 -0.20 -0.00    +0.000 OA
DOCKED: ATOM     16  H   UNL     1      28.210 -15.604   2.331 -1.22 -0.00    +0.000 HD
DOCKED: BRANCH  14  17
DOCKED: ATOM     17  C   UNL     1      28.113 -13.532   2.579 -0.27 -0.00    +0.000 A 
DOCKED: ATOM     18  C   UNL     1      27.181 -12.511   2.352 -0.28 -0.00    +0.000 A 
DOCKED: ATOM     19  C   UNL     1      27.297 -11.293   3.024 -0.26 +0.00    +0.000 A 
DOCKED: ATOM     20  C   UNL     1      28.357 -11.100   3.911 -0.21 +0.00    +0.000 A 
DOCKED: ATOM     21  N   UNL     1      29.269 -12.088   4.105 -0.15 -0.00    +0.000 NA
DOCKED: ATOM     22  C   UNL     1      29.177 -13.285   3.465 -0.21 -0.00    +0.000 A 
DOCKED: ENDBRANCH  14  17
DOCKED: ENDBRANCH  12  13
DOCKED: ENDBRANCH   1  12
DOCKED: TORSDOF 9
DOCKED: TER
DOCKED: ENDMDL
________________________________________________________________________________


	BEGINNING GENETIC ALGORITHM DOCKING 31 of 100
Run: 31 Seed: 940996039 1371804410 [ Run 31 of 100 GA/GALS ]
Beginning LAMARCKIAN GENETIC ALGORITHM (LGA), with a maximum of 2500000 energy evaluations.

Final-Value: -13.800


	FINAL GENETIC ALGORITHM DOCKED STATE
	_______________________________________________


Detailed state:  trans 28.339 -16.667 -1.795 quatxyzw 0.619271 0.018117 0.748611 -0.236129 center -0.121 -0.193 0.463 ntor 9 -18.3038 -122.6082 -90.5584 175.0790 133.5079 100.3019 132.5648 22.6450 -51.3488
State:	 28.339 -16.667  -1.795   0.637  0.019  0.770 -152.684    -18.30 -122.61  -90.56  175.08  133.51  100.30  132.56   22.64  -51.35

DOCKED: MODEL       31
DOCKED: USER    Run = 31
DOCKED: USER    DPF = ligand_dock.biased.dpf
DOCKED: USER  
DOCKED: USER    Estimated Free Energy of Binding    =   -9.85 kcal/mol  [=(1)+(2)+(3)-(4)]
DOCKED: USER    Estimated Inhibition Constant, Ki   =   60.42 nM (nanomolar)  [Temperature = 298.15 K]
DOCKED: USER    
DOCKED: USER    (1) Final Intermolecular Energy     =  -12.53 kcal/mol
DOCKED: USER        vdW + Hbond + desolv Energy     =  -12.53 kcal/mol
DOCKED: USER        Electrostatic Energy            =   +0.00 kcal/mol
DOCKED: USER    (2) Final Total Internal Energy     =   -1.27 kcal/mol
DOCKED: USER    (3) Torsional Free Energy           =   +2.68 kcal/mol
DOCKED: USER    (4) Unbound System's Energy  [=(2)] =   -1.27 kcal/mol
DOCKED: USER    
DOCKED: USER    
DOCKED: USER    NEWDPF move ligand.pdbqt
DOCKED: USER    NEWDPF about -0.121000 -0.193000 0.463000
DOCKED: USER    NEWDPF tran0 28.339007 -16.667000 -1.794714
DOCKED: USER    NEWDPF quaternion0 0.619271 0.018117 0.748611 -0.236129
DOCKED: USER    NEWDPF axisangle0 0.637293 0.018645 0.770396 -152.683644
DOCKED: USER    NEWDPF quat0 0.637293 0.018645 0.770396 -152.683644
DOCKED: USER    NEWDPF dihe0 -18.30 -122.61 -90.56 175.08 133.51 100.30 132.56 22.64 -51.35 
DOCKED: USER  keepresnum = 1 
DOCKED: USER  
DOCKED: REMARK  Name = 
DOCKED: REMARK  9 active torsions:
DOCKED: REMARK  status: ('A' for Active; 'I' for Inactive)
DOCKED: REMARK    1  A    between atoms: C_2  and  C_5
DOCKED: REMARK    2  A    between atoms: N_3  and  O_4
DOCKED: REMARK    3  A    between atoms: C_5  and  C_6
DOCKED: REMARK    4  A    between atoms: C_6  and  C_7
DOCKED: REMARK    5  A    between atoms: C_7  and  C_8
DOCKED: REMARK    6  A    between atoms: C_8  and  C_9
DOCKED: REMARK    7  A    between atoms: C_9  and  C_10
DOCKED: REMARK    8  A    between atoms: C_10  and  C_11
DOCKED: REMARK    9  A    between atoms: N_12  and  C_13
DOCKED: REMARK                            x       y       z     vdW  Elec       q    Type
DOCKED: REMARK                         _______ _______ _______ _____ _____    ______ ____
DOCKED: USER                              x       y       z     vdW  Elec       q    Type
DOCKED: USER                           _______ _______ _______ _____ _____    ______ ____
DOCKED: ROOT
DOCKED: ATOM      1  C   UNL     1      25.597 -15.032  -2.149 -0.42 -0.00    +0.000 C 
DOCKED: ENDROOT
DOCKED: BRANCH   1   2
DOCKED: ATOM      2  C   UNL     1      25.942 -16.138  -1.140 -0.50 -0.00    +0.000 C 
DOCKED: BRANCH   2   3
DOCKED: ATOM      3  C   UNL     1      25.048 -17.369  -1.344 -0.67 -0.00    +0.000 C 
DOCKED: BRANCH   3   4
DOCKED: ATOM      4  C   UNL     1      23.708 -17.263  -0.594 -0.68 -0.00    +0.000 C 
DOCKED: BRANCH   4   5
DOCKED: ATOM      5  C   UNL     1      22.996 -18.607  -0.371 -0.83 -0.00    +0.000 C 
DOCKED: BRANCH   5   7
DOCKED: ATOM      6  O   UNL     1      20.839 -17.639  -0.719 -2.15 -0.00    +0.000 OA
DOCKED: ATOM      7  C   UNL     1      21.608 -18.613  -0.941 -0.83 -0.00    +0.000 C 
DOCKED: ATOM      8  N   UNL     1      21.145 -19.726  -1.712 -0.62 -0.00    +0.000 N 
DOCKED: ATOM      9  H   UNL     1      21.750 -20.481  -1.889 -0.43 -0.00    +0.000 HD
DOCKED: BRANCH   8  10
DOCKED: ATOM     10  O   UNL     1      19.882 -19.747  -2.201 -1.89 -0.00    +0.000 OA
DOCKED: ATOM     11  H   UNL     1      19.338 -19.106  -1.720 -0.41 -0.00    +0.000 HD
DOCKED: ENDBRANCH   8  10
DOCKED: ENDBRANCH   5   7
DOCKED: ENDBRANCH   4   5
DOCKED: ENDBRANCH   3   4
DOCKED: ENDBRANCH   2   3
DOCKED: ENDBRANCH   1   2
DOCKED: BRANCH   1  12
DOCKED: ATOM     12  C   UNL     1      25.507 -15.566  -3.585 -0.55 -0.00    +0.000 C 
DOCKED: BRANCH  12  13
DOCKED: ATOM     13  C   UNL     1      26.477 -14.865  -4.492 -0.53 -0.00    +0.000 C 
DOCKED: ATOM     14  N   UNL     1      27.540 -15.602  -5.117 -0.43 +0.00    +0.000 N 
DOCKED: ATOM     15  O   UNL     1      26.352 -13.626  -4.692 -0.40 -0.00    +0.000 OA
DOCKED: ATOM     16  H   UNL     1      27.438 -16.576  -5.202 +0.05 +0.00    +0.000 HD
DOCKED: BRANCH  14  17
DOCKED: ATOM     17  C   UNL     1      28.745 -15.003  -5.625 -0.33 -0.00    +0.000 A 
DOCKED: ATOM     18  C   UNL     1      29.978 -15.327  -5.043 -0.19 -0.00    +0.000 A 
DOCKED: ATOM     19  C   UNL     1      31.151 -14.728  -5.506 -0.08 -0.00    +0.000 A 
DOCKED: ATOM     20  C   UNL     1      31.080 -13.795  -6.541 -0.11 -0.00    +0.000 A 
DOCKED: ATOM     21  N   UNL     1      29.876 -13.469  -7.081 -0.20 -0.00    +0.000 NA
DOCKED: ATOM     22  C   UNL     1      28.720 -14.041  -6.651 -0.31 -0.00    +0.000 A 
DOCKED: ENDBRANCH  14  17
DOCKED: ENDBRANCH  12  13
DOCKED: ENDBRANCH   1  12
DOCKED: TORSDOF 9
DOCKED: TER
DOCKED: ENDMDL
________________________________________________________________________________


	BEGINNING GENETIC ALGORITHM DOCKING 32 of 100
Run: 32 Seed: 1768465461 384733132 [ Run 32 of 100 GA/GALS ]
Beginning LAMARCKIAN GENETIC ALGORITHM (LGA), with a maximum of 2500000 energy evaluations.

Final-Value: -13.913


	FINAL GENETIC ALGORITHM DOCKED STATE
	_______________________________________________


Detailed state:  trans 24.928 -18.344 -2.404 quatxyzw 0.572686 -0.405677 0.226750 -0.675308 center -0.121 -0.193 0.463 ntor 9 0.3285 -136.7750 -82.0340 151.5844 150.6757 41.2519 -122.4217 179.8678 -100.5530
State:	 24.928 -18.344  -2.404   0.776 -0.550  0.307 -95.044      0.33 -136.78  -82.03  151.58  150.68   41.25 -122.42  179.87 -100.55

DOCKED: MODEL       32
DOCKED: USER    Run = 32
DOCKED: USER    DPF = ligand_dock.biased.dpf
DOCKED: USER  
DOCKED: USER    Estimated Free Energy of Binding    =  -10.03 kcal/mol  [=(1)+(2)+(3)-(4)]
DOCKED: USER    Estimated Inhibition Constant, Ki   =   44.73 nM (nanomolar)  [Temperature = 298.15 K]
DOCKED: USER    
DOCKED: USER    (1) Final Intermolecular Energy     =  -12.71 kcal/mol
DOCKED: USER        vdW + Hbond + desolv Energy     =  -12.71 kcal/mol
DOCKED: USER        Electrostatic Energy            =   +0.00 kcal/mol
DOCKED: USER    (2) Final Total Internal Energy     =   -1.20 kcal/mol
DOCKED: USER    (3) Torsional Free Energy           =   +2.68 kcal/mol
DOCKED: USER    (4) Unbound System's Energy  [=(2)] =   -1.20 kcal/mol
DOCKED: USER    
DOCKED: USER    
DOCKED: USER    NEWDPF move ligand.pdbqt
DOCKED: USER    NEWDPF about -0.121000 -0.193000 0.463000
DOCKED: USER    NEWDPF tran0 24.928400 -18.344442 -2.404098
DOCKED: USER    NEWDPF quaternion0 0.572686 -0.405677 0.226750 -0.675308
DOCKED: USER    NEWDPF axisangle0 0.776486 -0.550044 0.307443 -95.043893
DOCKED: USER    NEWDPF quat0 0.776486 -0.550044 0.307443 -95.043893
DOCKED: USER    NEWDPF dihe0 0.33 -136.78 -82.03 151.58 150.68 41.25 -122.42 179.87 -100.55 
DOCKED: USER  keepresnum = 1 
DOCKED: USER  
DOCKED: REMARK  Name = 
DOCKED: REMARK  9 active torsions:
DOCKED: REMARK  status: ('A' for Active; 'I' for Inactive)
DOCKED: REMARK    1  A    between atoms: C_2  and  C_5
DOCKED: REMARK    2  A    between atoms: N_3  and  O_4
DOCKED: REMARK    3  A    between atoms: C_5  and  C_6
DOCKED: REMARK    4  A    between atoms: C_6  and  C_7
DOCKED: REMARK    5  A    between atoms: C_7  and  C_8
DOCKED: REMARK    6  A    between atoms: C_8  and  C_9
DOCKED: REMARK    7  A    between atoms: C_9  and  C_10
DOCKED: REMARK    8  A    between atoms: C_10  and  C_11
DOCKED: REMARK    9  A    between atoms: N_12  and  C_13
DOCKED: REMARK                            x       y       z     vdW  Elec       q    Type
DOCKED: REMARK                         _______ _______ _______ _____ _____    ______ ____
DOCKED: USER                              x       y       z     vdW  Elec       q    Type
DOCKED: USER                           _______ _______ _______ _____ _____    ______ ____
DOCKED: ROOT
DOCKED: ATOM      1  C   UNL     1      26.676 -15.651  -2.335 -0.41 -0.00    +0.000 C 
DOCKED: ENDROOT
DOCKED: BRANCH   1   2
DOCKED: ATOM      2  C   UNL     1      25.781 -16.253  -1.241 -0.53 -0.00    +0.000 C 
DOCKED: BRANCH   2   3
DOCKED: ATOM      3  C   UNL     1      24.907 -17.382  -1.805 -0.65 -0.00    +0.000 C 
DOCKED: BRANCH   3   4
DOCKED: ATOM      4  C   UNL     1      23.512 -17.436  -1.156 -0.72 -0.00    +0.000 C 
DOCKED: BRANCH   4   5
DOCKED: ATOM      5  C   UNL     1      22.963 -18.858  -0.948 -0.82 -0.00    +0.000 C 
DOCKED: BRANCH   5   7
DOCKED: ATOM      6  O   UNL     1      20.744 -18.235  -0.315 -1.95 -0.00    +0.000 OA
DOCKED: ATOM      7  C   UNL     1      21.470 -18.913  -1.091 -0.83 -0.00    +0.000 C 
DOCKED: ATOM      8  N   UNL     1      20.867 -19.747  -2.085 -0.56 -0.00    +0.000 N 
DOCKED: ATOM      9  H   UNL     1      21.437 -20.269  -2.694 -0.57 -0.00    +0.000 HD
DOCKED: BRANCH   8  10
DOCKED: ATOM     10  O   UNL     1      19.519 -19.822  -2.196 -1.49 -0.00    +0.000 OA
DOCKED: ATOM     11  H   UNL     1      19.107 -19.247  -1.532 -0.52 -0.00    +0.000 HD
DOCKED: ENDBRANCH   8  10
DOCKED: ENDBRANCH   5   7
DOCKED: ENDBRANCH   4   5
DOCKED: ENDBRANCH   3   4
DOCKED: ENDBRANCH   2   3
DOCKED: ENDBRANCH   1   2
DOCKED: BRANCH   1  12
DOCKED: ATOM     12  C   UNL     1      25.864 -15.136  -3.531 -0.56 -0.00    +0.000 C 
DOCKED: BRANCH  12  13
DOCKED: ATOM     13  C   UNL     1      26.757 -14.761  -4.679 -0.49 -0.00    +0.000 C 
DOCKED: ATOM     14  N   UNL     1      27.330 -13.445  -4.744 -0.25 -0.00    +0.000 N 
DOCKED: ATOM     15  O   UNL     1      26.990 -15.607  -5.584 -1.15 +0.00    +0.000 OA
DOCKED: ATOM     16  H   UNL     1      27.395 -12.928  -3.909 +0.00 -0.00    +0.000 HD
DOCKED: BRANCH  14  17
DOCKED: ATOM     17  C   UNL     1      27.815 -12.837  -5.953 -0.21 -0.00    +0.000 A 
DOCKED: ATOM     18  C   UNL     1      27.309 -11.591  -6.352 -0.16 -0.00    +0.000 A 
DOCKED: ATOM     19  C   UNL     1      27.748 -11.005  -7.541 -0.14 -0.00    +0.000 A 
DOCKED: ATOM     20  C   UNL     1      28.681 -11.677  -8.331 -0.18 -0.00    +0.000 A 
DOCKED: ATOM     21  N   UNL     1      29.146 -12.895  -7.947 -0.25 -0.00    +0.000 NA
DOCKED: ATOM     22  C   UNL     1      28.738 -13.486  -6.793 -0.27 -0.00    +0.000 A 
DOCKED: ENDBRANCH  14  17
DOCKED: ENDBRANCH  12  13
DOCKED: ENDBRANCH   1  12
DOCKED: TORSDOF 9
DOCKED: TER
DOCKED: ENDMDL
________________________________________________________________________________


	BEGINNING GENETIC ALGORITHM DOCKING 33 of 100
Run: 33 Seed: 1095248399 1286864150 [ Run 33 of 100 GA/GALS ]
Beginning LAMARCKIAN GENETIC ALGORITHM (LGA), with a maximum of 2500000 energy evaluations.

Final-Value: -14.372


	FINAL GENETIC ALGORITHM DOCKED STATE
	_______________________________________________


Detailed state:  trans 25.045 -18.574 -3.947 quatxyzw -0.684267 0.517493 -0.274875 0.434076 center -0.121 -0.193 0.463 ntor 9 5.0994 -61.7980 -129.2853 171.3823 -62.0986 1.8499 50.6716 -155.7841 -47.9860
State:	 25.045 -18.574  -3.947  -0.760  0.574 -0.305 128.547      5.10  -61.80 -129.29  171.38  -62.10    1.85   50.67 -155.78  -47.99

DOCKED: MODEL       33
DOCKED: USER    Run = 33
DOCKED: USER    DPF = ligand_dock.biased.dpf
DOCKED: USER  
DOCKED: USER    Estimated Free Energy of Binding    =  -10.39 kcal/mol  [=(1)+(2)+(3)-(4)]
DOCKED: USER    Estimated Inhibition Constant, Ki   =   24.23 nM (nanomolar)  [Temperature = 298.15 K]
DOCKED: USER    
DOCKED: USER    (1) Final Intermolecular Energy     =  -13.07 kcal/mol
DOCKED: USER        vdW + Hbond + desolv Energy     =  -13.07 kcal/mol
DOCKED: USER        Electrostatic Energy            =   +0.00 kcal/mol
DOCKED: USER    (2) Final Total Internal Energy     =   -1.30 kcal/mol
DOCKED: USER    (3) Torsional Free Energy           =   +2.68 kcal/mol
DOCKED: USER    (4) Unbound System's Energy  [=(2)] =   -1.30 kcal/mol
DOCKED: USER    
DOCKED: USER    
DOCKED: USER    NEWDPF move ligand.pdbqt
DOCKED: USER    NEWDPF about -0.121000 -0.193000 0.463000
DOCKED: USER    NEWDPF tran0 25.045257 -18.574199 -3.947018
DOCKED: USER    NEWDPF quaternion0 -0.684267 0.517493 -0.274875 0.434076
DOCKED: USER    NEWDPF axisangle0 -0.759558 0.574434 -0.305120 128.546945
DOCKED: USER    NEWDPF quat0 -0.759558 0.574434 -0.305120 128.546945
DOCKED: USER    NEWDPF dihe0 5.10 -61.80 -129.29 171.38 -62.10 1.85 50.67 -155.78 -47.99 
DOCKED: USER  keepresnum = 1 
DOCKED: USER  
DOCKED: REMARK  Name = 
DOCKED: REMARK  9 active torsions:
DOCKED: REMARK  status: ('A' for Active; 'I' for Inactive)
DOCKED: REMARK    1  A    between atoms: C_2  and  C_5
DOCKED: REMARK    2  A    between atoms: N_3  and  O_4
DOCKED: REMARK    3  A    between atoms: C_5  and  C_6
DOCKED: REMARK    4  A    between atoms: C_6  and  C_7
DOCKED: REMARK    5  A    between atoms: C_7  and  C_8
DOCKED: REMARK    6  A    between atoms: C_8  and  C_9
DOCKED: REMARK    7  A    between atoms: C_9  and  C_10
DOCKED: REMARK    8  A    between atoms: C_10  and  C_11
DOCKED: REMARK    9  A    between atoms: N_12  and  C_13
DOCKED: REMARK                            x       y       z     vdW  Elec       q    Type
DOCKED: REMARK                         _______ _______ _______ _____ _____    ______ ____
DOCKED: USER                              x       y       z     vdW  Elec       q    Type
DOCKED: USER                           _______ _______ _______ _____ _____    ______ ____
DOCKED: ROOT
DOCKED: ATOM      1  C   UNL     1      26.087 -16.101  -2.182 -0.50 -0.00    +0.000 C 
DOCKED: ENDROOT
DOCKED: BRANCH   1   2
DOCKED: ATOM      2  C   UNL     1      25.046 -17.174  -1.828 -0.64 -0.00    +0.000 C 
DOCKED: BRANCH   2   3
DOCKED: ATOM      3  C   UNL     1      24.830 -17.251  -0.309 -0.52 -0.00    +0.000 C 
DOCKED: BRANCH   3   4
DOCKED: ATOM      4  C   UNL     1      23.719 -18.241   0.084 -0.70 -0.00    +0.000 C 
DOCKED: BRANCH   4   5
DOCKED: ATOM      5  C   UNL     1      23.115 -19.021  -1.096 -0.81 -0.00    +0.000 C 
DOCKED: BRANCH   5   7
DOCKED: ATOM      6  O   UNL     1      21.039 -18.033  -0.445 -1.96 -0.00    +0.000 OA
DOCKED: ATOM      7  C   UNL     1      21.619 -18.911  -1.139 -0.80 -0.00    +0.000 C 
DOCKED: ATOM      8  N   UNL     1      20.848 -19.810  -1.942 -0.58 -0.00    +0.000 N 
DOCKED: ATOM      9  H   UNL     1      21.305 -20.489  -2.487 -0.53 -0.00    +0.000 HD
DOCKED: BRANCH   8  10
DOCKED: ATOM     10  O   UNL     1      19.496 -19.732  -1.958 -1.58 -0.00    +0.000 OA
DOCKED: ATOM     11  H   UNL     1      19.210 -18.966  -1.437 -0.49 -0.00    +0.000 HD
DOCKED: ENDBRANCH   8  10
DOCKED: ENDBRANCH   5   7
DOCKED: ENDBRANCH   4   5
DOCKED: ENDBRANCH   3   4
DOCKED: ENDBRANCH   2   3
DOCKED: ENDBRANCH   1   2
DOCKED: BRANCH   1  12
DOCKED: ATOM     12  C   UNL     1      25.592 -15.154  -3.284 -0.55 -0.00    +0.000 C 
DOCKED: BRANCH  12  13
DOCKED: ATOM     13  C   UNL     1      26.462 -15.232  -4.505 -0.56 -0.00    +0.000 C 
DOCKED: ATOM     14  N   UNL     1      27.850 -14.870  -4.425 -0.31 -0.00    +0.000 N 
DOCKED: ATOM     15  O   UNL     1      25.960 -15.610  -5.598 -1.09 +0.00    +0.000 OA
DOCKED: ATOM     16  H   UNL     1      28.280 -14.883  -3.540 +0.00 -0.00    +0.000 HD
DOCKED: BRANCH  14  17
DOCKED: ATOM     17  C   UNL     1      28.649 -14.488  -5.557 -0.30 -0.00    +0.000 A 
DOCKED: ATOM     18  C   UNL     1      28.512 -13.203  -6.100 -0.22 -0.00    +0.000 A 
DOCKED: ATOM     19  C   UNL     1      29.258 -12.831  -7.219 -0.21 -0.00    +0.000 A 
DOCKED: ATOM     20  C   UNL     1      30.129 -13.754  -7.798 -0.13 -0.00    +0.000 A 
DOCKED: ATOM     21  N   UNL     1      30.237 -15.006  -7.279 -0.29 -0.00    +0.000 NA
DOCKED: ATOM     22  C   UNL     1      29.524 -15.392  -6.188 -0.32 -0.00    +0.000 A 
DOCKED: ENDBRANCH  14  17
DOCKED: ENDBRANCH  12  13
DOCKED: ENDBRANCH   1  12
DOCKED: TORSDOF 9
DOCKED: TER
DOCKED: ENDMDL
________________________________________________________________________________


	BEGINNING GENETIC ALGORITHM DOCKING 34 of 100
Run: 34 Seed: 182780800 1242494173 [ Run 34 of 100 GA/GALS ]
Beginning LAMARCKIAN GENETIC ALGORITHM (LGA), with a maximum of 2500000 energy evaluations.

Final-Value: -13.901


	FINAL GENETIC ALGORITHM DOCKED STATE
	_______________________________________________


Detailed state:  trans 24.168 -18.087 -2.989 quatxyzw 0.390065 -0.563234 0.295801 -0.665672 center -0.121 -0.193 0.463 ntor 9 -3.3273 -178.9341 -25.7463 83.4360 169.2178 65.5855 -52.8448 177.0522 173.2503
State:	 24.168 -18.087  -2.989   0.523 -0.755  0.396 -96.532     -3.33 -178.93  -25.75   83.44  169.22   65.59  -52.84  177.05  173.25

DOCKED: MODEL       34
DOCKED: USER    Run = 34
DOCKED: USER    DPF = ligand_dock.biased.dpf
DOCKED: USER  
DOCKED: USER    Estimated Free Energy of Binding    =  -10.05 kcal/mol  [=(1)+(2)+(3)-(4)]
DOCKED: USER    Estimated Inhibition Constant, Ki   =   42.67 nM (nanomolar)  [Temperature = 298.15 K]
DOCKED: USER    
DOCKED: USER    (1) Final Intermolecular Energy     =  -12.74 kcal/mol
DOCKED: USER        vdW + Hbond + desolv Energy     =  -12.74 kcal/mol
DOCKED: USER        Electrostatic Energy            =   +0.00 kcal/mol
DOCKED: USER    (2) Final Total Internal Energy     =   -1.16 kcal/mol
DOCKED: USER    (3) Torsional Free Energy           =   +2.68 kcal/mol
DOCKED: USER    (4) Unbound System's Energy  [=(2)] =   -1.16 kcal/mol
DOCKED: USER    
DOCKED: USER    
DOCKED: USER    NEWDPF move ligand.pdbqt
DOCKED: USER    NEWDPF about -0.121000 -0.193000 0.463000
DOCKED: USER    NEWDPF tran0 24.168093 -18.087001 -2.988809
DOCKED: USER    NEWDPF quaternion0 0.390065 -0.563234 0.295801 -0.665672
DOCKED: USER    NEWDPF axisangle0 0.522704 -0.754758 0.396386 -96.532208
DOCKED: USER    NEWDPF quat0 0.522704 -0.754758 0.396386 -96.532208
DOCKED: USER    NEWDPF dihe0 -3.33 -178.93 -25.75 83.44 169.22 65.59 -52.84 177.05 173.25 
DOCKED: USER  keepresnum = 1 
DOCKED: USER  
DOCKED: REMARK  Name = 
DOCKED: REMARK  9 active torsions:
DOCKED: REMARK  status: ('A' for Active; 'I' for Inactive)
DOCKED: REMARK    1  A    between atoms: C_2  and  C_5
DOCKED: REMARK    2  A    between atoms: N_3  and  O_4
DOCKED: REMARK    3  A    between atoms: C_5  and  C_6
DOCKED: REMARK    4  A    between atoms: C_6  and  C_7
DOCKED: REMARK    5  A    between atoms: C_7  and  C_8
DOCKED: REMARK    6  A    between atoms: C_8  and  C_9
DOCKED: REMARK    7  A    between atoms: C_9  and  C_10
DOCKED: REMARK    8  A    between atoms: C_10  and  C_11
DOCKED: REMARK    9  A    between atoms: N_12  and  C_13
DOCKED: REMARK                            x       y       z     vdW  Elec       q    Type
DOCKED: REMARK                         _______ _______ _______ _____ _____    ______ ____
DOCKED: USER                              x       y       z     vdW  Elec       q    Type
DOCKED: USER                           _______ _______ _______ _____ _____    ______ ____
DOCKED: ROOT
DOCKED: ATOM      1  C   UNL     1      26.434 -15.830  -2.690 -0.46 -0.00    +0.000 C 
DOCKED: ENDROOT
DOCKED: BRANCH   1   2
DOCKED: ATOM      2  C   UNL     1      25.090 -15.957  -1.955 -0.53 -0.00    +0.000 C 
DOCKED: BRANCH   2   3
DOCKED: ATOM      3  C   UNL     1      24.991 -17.300  -1.217 -0.67 -0.00    +0.000 C 
DOCKED: BRANCH   3   4
DOCKED: ATOM      4  C   UNL     1      23.801 -18.153  -1.691 -0.68 -0.00    +0.000 C 
DOCKED: BRANCH   4   5
DOCKED: ATOM      5  C   UNL     1      22.844 -18.589  -0.569 -0.84 -0.00    +0.000 C 
DOCKED: BRANCH   5   7
DOCKED: ATOM      6  O   UNL     1      20.629 -17.702  -0.706 -2.24 +0.00    +0.000 OA
DOCKED: ATOM      7  C   UNL     1      21.416 -18.633  -1.029 -0.81 -0.00    +0.000 C 
DOCKED: ATOM      8  N   UNL     1      20.938 -19.733  -1.808 -0.70 -0.00    +0.000 N 
DOCKED: ATOM      9  H   UNL     1      21.557 -20.454  -2.064 -0.48 -0.00    +0.000 HD
DOCKED: BRANCH   8  10
DOCKED: ATOM     10  O   UNL     1      19.643 -19.790  -2.198 -1.63 -0.00    +0.000 OA
DOCKED: ATOM     11  H   UNL     1      19.159 -19.037  -1.824 -0.55 -0.00    +0.000 HD
DOCKED: ENDBRANCH   8  10
DOCKED: ENDBRANCH   5   7
DOCKED: ENDBRANCH   4   5
DOCKED: ENDBRANCH   3   4
DOCKED: ENDBRANCH   2   3
DOCKED: ENDBRANCH   1   2
DOCKED: BRANCH   1  12
DOCKED: ATOM     12  C   UNL     1      26.252 -15.502  -4.178 -0.54 -0.00    +0.000 C 
DOCKED: BRANCH  12  13
DOCKED: ATOM     13  C   UNL     1      26.534 -14.054  -4.459 -0.43 -0.00    +0.000 C 
DOCKED: ATOM     14  N   UNL     1      25.478 -13.085  -4.369 -0.42 -0.00    +0.000 N 
DOCKED: ATOM     15  O   UNL     1      27.701 -13.703  -4.781 -0.26 -0.00    +0.000 OA
DOCKED: ATOM     16  H   UNL     1      24.686 -13.314  -3.832 -0.07 -0.00    +0.000 HD
DOCKED: BRANCH  14  17
DOCKED: ATOM     17  C   UNL     1      25.506 -11.801  -5.015 -0.27 -0.00    +0.000 A 
DOCKED: ATOM     18  C   UNL     1      24.427 -10.921  -4.853 -0.30 -0.00    +0.000 A 
DOCKED: ATOM     19  C   UNL     1      24.428  -9.684  -5.501 -0.36 -0.00    +0.000 A 
DOCKED: ATOM     20  C   UNL     1      25.504  -9.342  -6.320 -0.18 -0.00    +0.000 A 
DOCKED: ATOM     21  N   UNL     1      26.534 -10.212  -6.489 -0.15 -0.00    +0.000 NA
DOCKED: ATOM     22  C   UNL     1      26.560 -11.421  -5.866 -0.19 -0.00    +0.000 A 
DOCKED: ENDBRANCH  14  17
DOCKED: ENDBRANCH  12  13
DOCKED: ENDBRANCH   1  12
DOCKED: TORSDOF 9
DOCKED: TER
DOCKED: ENDMDL
________________________________________________________________________________


	BEGINNING GENETIC ALGORITHM DOCKING 35 of 100
Run: 35 Seed: 1961705911 1776314585 [ Run 35 of 100 GA/GALS ]
Beginning LAMARCKIAN GENETIC ALGORITHM (LGA), with a maximum of 2500000 energy evaluations.

Final-Value: -12.925


	FINAL GENETIC ALGORITHM DOCKED STATE
	_______________________________________________


Detailed state:  trans 28.098 -17.742 -0.630 quatxyzw -0.274943 0.542820 -0.757311 -0.237134 center -0.121 -0.193 0.463 ntor 9 62.0279 -179.9215 87.9211 145.0098 -170.4091 -93.4287 -9.0477 -179.3656 -64.8761
State:	 28.098 -17.742  -0.630  -0.283  0.559 -0.780 -152.565     62.03 -179.92   87.92  145.01 -170.41  -93.43   -9.05 -179.37  -64.88

DOCKED: MODEL       35
DOCKED: USER    Run = 35
DOCKED: USER    DPF = ligand_dock.biased.dpf
DOCKED: USER  
DOCKED: USER    Estimated Free Energy of Binding    =   -9.36 kcal/mol  [=(1)+(2)+(3)-(4)]
DOCKED: USER    Estimated Inhibition Constant, Ki   =  136.80 nM (nanomolar)  [Temperature = 298.15 K]
DOCKED: USER    
DOCKED: USER    (1) Final Intermolecular Energy     =  -12.05 kcal/mol
DOCKED: USER        vdW + Hbond + desolv Energy     =  -12.05 kcal/mol
DOCKED: USER        Electrostatic Energy            =   +0.00 kcal/mol
DOCKED: USER    (2) Final Total Internal Energy     =   -0.88 kcal/mol
DOCKED: USER    (3) Torsional Free Energy           =   +2.68 kcal/mol
DOCKED: USER    (4) Unbound System's Energy  [=(2)] =   -0.88 kcal/mol
DOCKED: USER    
DOCKED: USER    
DOCKED: USER    NEWDPF move ligand.pdbqt
DOCKED: USER    NEWDPF about -0.121000 -0.193000 0.463000
DOCKED: USER    NEWDPF tran0 28.098062 -17.742440 -0.630406
DOCKED: USER    NEWDPF quaternion0 -0.274943 0.542820 -0.757311 -0.237134
DOCKED: USER    NEWDPF axisangle0 -0.283016 0.558758 -0.779546 -152.565094
DOCKED: USER    NEWDPF quat0 -0.283016 0.558758 -0.779546 -152.565094
DOCKED: USER    NEWDPF dihe0 62.03 -179.92 87.92 145.01 -170.41 -93.43 -9.05 -179.37 -64.88 
DOCKED: USER  keepresnum = 1 
DOCKED: USER  
DOCKED: REMARK  Name = 
DOCKED: REMARK  9 active torsions:
DOCKED: REMARK  status: ('A' for Active; 'I' for Inactive)
DOCKED: REMARK    1  A    between atoms: C_2  and  C_5
DOCKED: REMARK    2  A    between atoms: N_3  and  O_4
DOCKED: REMARK    3  A    between atoms: C_5  and  C_6
DOCKED: REMARK    4  A    between atoms: C_6  and  C_7
DOCKED: REMARK    5  A    between atoms: C_7  and  C_8
DOCKED: REMARK    6  A    between atoms: C_8  and  C_9
DOCKED: REMARK    7  A    between atoms: C_9  and  C_10
DOCKED: REMARK    8  A    between atoms: C_10  and  C_11
DOCKED: REMARK    9  A    between atoms: N_12  and  C_13
DOCKED: REMARK                            x       y       z     vdW  Elec       q    Type
DOCKED: REMARK                         _______ _______ _______ _____ _____    ______ ____
DOCKED: USER                              x       y       z     vdW  Elec       q    Type
DOCKED: USER                           _______ _______ _______ _____ _____    ______ ____
DOCKED: ROOT
DOCKED: ATOM      1  C   UNL     1      25.523 -15.824  -0.705 -0.42 -0.00    +0.000 C 
DOCKED: ENDROOT
DOCKED: BRANCH   1   2
DOCKED: ATOM      2  C   UNL     1      25.823 -17.076  -1.543 -0.58 -0.00    +0.000 C 
DOCKED: BRANCH   2   3
DOCKED: ATOM      3  C   UNL     1      25.060 -18.295  -1.004 -0.64 -0.00    +0.000 C 
DOCKED: BRANCH   3   4
DOCKED: ATOM      4  C   UNL     1      23.593 -18.331  -1.467 -0.77 -0.00    +0.000 C 
DOCKED: BRANCH   4   5
DOCKED: ATOM      5  C   UNL     1      22.575 -17.931  -0.386 -0.82 -0.00    +0.000 C 
DOCKED: BRANCH   5   7
DOCKED: ATOM      6  O   UNL     1      20.290 -17.856  -1.081 -2.18 -0.00    +0.000 OA
DOCKED: ATOM      7  C   UNL     1      21.230 -18.556  -0.617 -0.82 -0.00    +0.000 C 
DOCKED: ATOM      8  N   UNL     1      21.003 -19.930  -0.291 -0.69 -0.00    +0.000 N 
DOCKED: ATOM      9  H   UNL     1      21.742 -20.475   0.064 -0.58 -0.00    +0.000 HD
DOCKED: BRANCH   8  10
DOCKED: ATOM     10  O   UNL     1      19.782 -20.488  -0.469 -0.88 -0.00    +0.000 OA
DOCKED: ATOM     11  H   UNL     1      19.547 -20.459  -1.410 -0.59 -0.00    +0.000 HD
DOCKED: ENDBRANCH   8  10
DOCKED: ENDBRANCH   5   7
DOCKED: ENDBRANCH   4   5
DOCKED: ENDBRANCH   3   4
DOCKED: ENDBRANCH   2   3
DOCKED: ENDBRANCH   1   2
DOCKED: BRANCH   1  12
DOCKED: ATOM     12  C   UNL     1      26.451 -14.654  -1.060 -0.34 -0.00    +0.000 C 
DOCKED: BRANCH  12  13
DOCKED: ATOM     13  C   UNL     1      26.975 -13.977   0.174 -0.30 -0.00    +0.000 C 
DOCKED: ATOM     14  N   UNL     1      26.204 -12.946   0.812 -0.35 -0.00    +0.000 N 
DOCKED: ATOM     15  O   UNL     1      28.098 -14.317   0.636 -0.24 -0.00    +0.000 OA
DOCKED: ATOM     16  H   UNL     1      25.237 -12.917   0.634 -0.03 -0.00    +0.000 HD
DOCKED: BRANCH  14  17
DOCKED: ATOM     17  C   UNL     1      26.759 -11.954   1.693 -0.29 +0.00    +0.000 A 
DOCKED: ATOM     18  C   UNL     1      27.301 -12.348   2.924 -0.27 +0.00    +0.000 A 
DOCKED: ATOM     19  C   UNL     1      27.813 -11.392   3.803 -0.27 +0.00    +0.000 A 
DOCKED: ATOM     20  C   UNL     1      27.765 -10.044   3.450 -0.14 +0.00    +0.000 A 
DOCKED: ATOM     21  N   UNL     1      27.215  -9.670   2.264 -0.58 +0.00    +0.000 NA
DOCKED: ATOM     22  C   UNL     1      26.713 -10.582   1.389 -0.28 +0.00    +0.000 A 
DOCKED: ENDBRANCH  14  17
DOCKED: ENDBRANCH  12  13
DOCKED: ENDBRANCH   1  12
DOCKED: TORSDOF 9
DOCKED: TER
DOCKED: ENDMDL
________________________________________________________________________________


	BEGINNING GENETIC ALGORITHM DOCKING 36 of 100
Run: 36 Seed: 633058977 1105755846 [ Run 36 of 100 GA/GALS ]
Beginning LAMARCKIAN GENETIC ALGORITHM (LGA), with a maximum of 2500000 energy evaluations.

Final-Value: -13.173


	FINAL GENETIC ALGORITHM DOCKED STATE
	_______________________________________________


Detailed state:  trans 27.565 -18.162 -2.208 quatxyzw -0.794058 0.115744 -0.554088 0.221498 center -0.121 -0.193 0.463 ntor 9 -9.5470 63.2437 74.4457 -135.3561 -167.2503 -77.5427 108.9517 -40.7944 -44.5246
State:	 27.565 -18.162  -2.208  -0.814  0.119 -0.568 154.406     -9.55   63.24   74.45 -135.36 -167.25  -77.54  108.95  -40.79  -44.52

DOCKED: MODEL       36
DOCKED: USER    Run = 36
DOCKED: USER    DPF = ligand_dock.biased.dpf
DOCKED: USER  
DOCKED: USER    Estimated Free Energy of Binding    =   -8.94 kcal/mol  [=(1)+(2)+(3)-(4)]
DOCKED: USER    Estimated Inhibition Constant, Ki   =  281.17 nM (nanomolar)  [Temperature = 298.15 K]
DOCKED: USER    
DOCKED: USER    (1) Final Intermolecular Energy     =  -11.62 kcal/mol
DOCKED: USER        vdW + Hbond + desolv Energy     =  -11.62 kcal/mol
DOCKED: USER        Electrostatic Energy            =   +0.00 kcal/mol
DOCKED: USER    (2) Final Total Internal Energy     =   -1.55 kcal/mol
DOCKED: USER    (3) Torsional Free Energy           =   +2.68 kcal/mol
DOCKED: USER    (4) Unbound System's Energy  [=(2)] =   -1.55 kcal/mol
DOCKED: USER    
DOCKED: USER    
DOCKED: USER    NEWDPF move ligand.pdbqt
DOCKED: USER    NEWDPF about -0.121000 -0.193000 0.463000
DOCKED: USER    NEWDPF tran0 27.565114 -18.161974 -2.208496
DOCKED: USER    NEWDPF quaternion0 -0.794058 0.115744 -0.554088 0.221498
DOCKED: USER    NEWDPF axisangle0 -0.814284 0.118692 -0.568202 154.405931
DOCKED: USER    NEWDPF quat0 -0.814284 0.118692 -0.568202 154.405931
DOCKED: USER    NEWDPF dihe0 -9.55 63.24 74.45 -135.36 -167.25 -77.54 108.95 -40.79 -44.52 
DOCKED: USER  keepresnum = 1 
DOCKED: USER  
DOCKED: REMARK  Name = 
DOCKED: REMARK  9 active torsions:
DOCKED: REMARK  status: ('A' for Active; 'I' for Inactive)
DOCKED: REMARK    1  A    between atoms: C_2  and  C_5
DOCKED: REMARK    2  A    between atoms: N_3  and  O_4
DOCKED: REMARK    3  A    between atoms: C_5  and  C_6
DOCKED: REMARK    4  A    between atoms: C_6  and  C_7
DOCKED: REMARK    5  A    between atoms: C_7  and  C_8
DOCKED: REMARK    6  A    between atoms: C_8  and  C_9
DOCKED: REMARK    7  A    between atoms: C_9  and  C_10
DOCKED: REMARK    8  A    between atoms: C_10  and  C_11
DOCKED: REMARK    9  A    between atoms: N_12  and  C_13
DOCKED: REMARK                            x       y       z     vdW  Elec       q    Type
DOCKED: REMARK                         _______ _______ _______ _____ _____    ______ ____
DOCKED: USER                              x       y       z     vdW  Elec       q    Type
DOCKED: USER                           _______ _______ _______ _____ _____    ______ ____
DOCKED: ROOT
DOCKED: ATOM      1  C   UNL     1      25.517 -16.069  -0.889 -0.49 -0.00    +0.000 C 
DOCKED: ENDROOT
DOCKED: BRANCH   1   2
DOCKED: ATOM      2  C   UNL     1      25.880 -17.490  -0.430 -0.63 -0.00    +0.000 C 
DOCKED: BRANCH   2   3
DOCKED: ATOM      3  C   UNL     1      24.640 -18.238   0.080 -0.65 -0.00    +0.000 C 
DOCKED: BRANCH   3   4
DOCKED: ATOM      4  C   UNL     1      24.004 -19.138  -0.993 -0.58 -0.00    +0.000 C 
DOCKED: BRANCH   4   5
DOCKED: ATOM      5  C   UNL     1      22.753 -18.544  -1.662 -0.42 -0.00    +0.000 C 
DOCKED: BRANCH   5   7
DOCKED: ATOM      6  O   UNL     1      20.774 -17.591  -0.721 -2.14 -0.00    +0.000 OA
DOCKED: ATOM      7  C   UNL     1      21.557 -18.577  -0.755 -0.86 -0.00    +0.000 C 
DOCKED: ATOM      8  N   UNL     1      21.317 -19.709   0.086 -0.61 -0.00    +0.000 N 
DOCKED: ATOM      9  H   UNL     1      21.927 -20.481   0.051 -0.58 -0.00    +0.000 HD
DOCKED: BRANCH   8  10
DOCKED: ATOM     10  O   UNL     1      20.256 -19.729   0.928 -0.79 -0.00    +0.000 OA
DOCKED: ATOM     11  H   UNL     1      19.847 -18.850   0.953 -0.19 -0.00    +0.000 HD
DOCKED: ENDBRANCH   8  10
DOCKED: ENDBRANCH   5   7
DOCKED: ENDBRANCH   4   5
DOCKED: ENDBRANCH   3   4
DOCKED: ENDBRANCH   2   3
DOCKED: ENDBRANCH   1   2
DOCKED: BRANCH   1  12
DOCKED: ATOM     12  C   UNL     1      24.727 -16.069  -2.205 -0.43 -0.00    +0.000 C 
DOCKED: BRANCH  12  13
DOCKED: ATOM     13  C   UNL     1      25.506 -15.419  -3.312 -0.57 -0.00    +0.000 C 
DOCKED: ATOM     14  N   UNL     1      26.841 -15.861  -3.607 -0.36 -0.00    +0.000 N 
DOCKED: ATOM     15  O   UNL     1      24.981 -14.481  -3.970 -1.00 -0.00    +0.000 OA
DOCKED: ATOM     16  H   UNL     1      27.104 -16.762  -3.312 -0.00 -0.00    +0.000 HD
DOCKED: BRANCH  14  17
DOCKED: ATOM     17  C   UNL     1      27.815 -15.068  -4.307 -0.33 -0.00    +0.000 A 
DOCKED: ATOM     18  C   UNL     1      27.753 -14.969  -5.704 -0.35 -0.00    +0.000 A 
DOCKED: ATOM     19  C   UNL     1      28.712 -14.229  -6.398 -0.32 -0.00    +0.000 A 
DOCKED: ATOM     20  C   UNL     1      29.737 -13.604  -5.689 -0.13 -0.00    +0.000 A 
DOCKED: ATOM     21  N   UNL     1      29.803 -13.726  -4.337 -0.07 -0.00    +0.000 NA
DOCKED: ATOM     22  C   UNL     1      28.879 -14.438  -3.637 -0.13 -0.00    +0.000 A 
DOCKED: ENDBRANCH  14  17
DOCKED: ENDBRANCH  12  13
DOCKED: ENDBRANCH   1  12
DOCKED: TORSDOF 9
DOCKED: TER
DOCKED: ENDMDL
________________________________________________________________________________


	BEGINNING GENETIC ALGORITHM DOCKING 37 of 100
Run: 37 Seed: 1792769728 451605386 [ Run 37 of 100 GA/GALS ]
Beginning LAMARCKIAN GENETIC ALGORITHM (LGA), with a maximum of 2500000 energy evaluations.

Final-Value: -13.922


	FINAL GENETIC ALGORITHM DOCKED STATE
	_______________________________________________


Detailed state:  trans 27.321 -17.021 -4.514 quatxyzw 0.742432 -0.476568 0.462861 -0.086243 center -0.121 -0.193 0.463 ntor 9 -10.7151 -147.9574 -75.3372 166.3317 91.7088 -100.5999 41.3971 -72.0743 -1.7236
State:	 27.321 -17.021  -4.514   0.745 -0.478  0.465 -170.105    -10.72 -147.96  -75.34  166.33   91.71 -100.60   41.40  -72.07   -1.72

DOCKED: MODEL       37
DOCKED: USER    Run = 37
DOCKED: USER    DPF = ligand_dock.biased.dpf
DOCKED: USER  
DOCKED: USER    Estimated Free Energy of Binding    =  -10.04 kcal/mol  [=(1)+(2)+(3)-(4)]
DOCKED: USER    Estimated Inhibition Constant, Ki   =   43.48 nM (nanomolar)  [Temperature = 298.15 K]
DOCKED: USER    
DOCKED: USER    (1) Final Intermolecular Energy     =  -12.73 kcal/mol
DOCKED: USER        vdW + Hbond + desolv Energy     =  -12.73 kcal/mol
DOCKED: USER        Electrostatic Energy            =   +0.00 kcal/mol
DOCKED: USER    (2) Final Total Internal Energy     =   -1.19 kcal/mol
DOCKED: USER    (3) Torsional Free Energy           =   +2.68 kcal/mol
DOCKED: USER    (4) Unbound System's Energy  [=(2)] =   -1.19 kcal/mol
DOCKED: USER    
DOCKED: USER    
DOCKED: USER    NEWDPF move ligand.pdbqt
DOCKED: USER    NEWDPF about -0.121000 -0.193000 0.463000
DOCKED: USER    NEWDPF tran0 27.320663 -17.021496 -4.514288
DOCKED: USER    NEWDPF quaternion0 0.742432 -0.476568 0.462861 -0.086243
DOCKED: USER    NEWDPF axisangle0 0.745208 -0.478350 0.464592 -170.104934
DOCKED: USER    NEWDPF quat0 0.745208 -0.478350 0.464592 -170.104934
DOCKED: USER    NEWDPF dihe0 -10.72 -147.96 -75.34 166.33 91.71 -100.60 41.40 -72.07 -1.72 
DOCKED: USER  keepresnum = 1 
DOCKED: USER  
DOCKED: REMARK  Name = 
DOCKED: REMARK  9 active torsions:
DOCKED: REMARK  status: ('A' for Active; 'I' for Inactive)
DOCKED: REMARK    1  A    between atoms: C_2  and  C_5
DOCKED: REMARK    2  A    between atoms: N_3  and  O_4
DOCKED: REMARK    3  A    between atoms: C_5  and  C_6
DOCKED: REMARK    4  A    between atoms: C_6  and  C_7
DOCKED: REMARK    5  A    between atoms: C_7  and  C_8
DOCKED: REMARK    6  A    between atoms: C_8  and  C_9
DOCKED: REMARK    7  A    between atoms: C_9  and  C_10
DOCKED: REMARK    8  A    between atoms: C_10  and  C_11
DOCKED: REMARK    9  A    between atoms: N_12  and  C_13
DOCKED: REMARK                            x       y       z     vdW  Elec       q    Type
DOCKED: REMARK                         _______ _______ _______ _____ _____    ______ ____
DOCKED: USER                              x       y       z     vdW  Elec       q    Type
DOCKED: USER                           _______ _______ _______ _____ _____    ______ ____
DOCKED: ROOT
DOCKED: ATOM      1  C   UNL     1      26.046 -15.309  -2.114 -0.45 -0.00    +0.000 C 
DOCKED: ENDROOT
DOCKED: BRANCH   1   2
DOCKED: ATOM      2  C   UNL     1      25.679 -16.720  -2.599 -0.46 -0.00    +0.000 C 
DOCKED: BRANCH   2   3
DOCKED: ATOM      3  C   UNL     1      25.110 -17.566  -1.451 -0.66 -0.00    +0.000 C 
DOCKED: BRANCH   3   4
DOCKED: ATOM      4  C   UNL     1      23.682 -17.150  -1.056 -0.70 -0.00    +0.000 C 
DOCKED: BRANCH   4   5
DOCKED: ATOM      5  C   UNL     1      22.877 -18.244  -0.335 -0.83 -0.00    +0.000 C 
DOCKED: BRANCH   5   7
DOCKED: ATOM      6  O   UNL     1      20.631 -17.520  -0.710 -2.11 +0.00    +0.000 OA
DOCKED: ATOM      7  C   UNL     1      21.502 -18.408  -0.913 -0.79 -0.00    +0.000 C 
DOCKED: ATOM      8  N   UNL     1      21.168 -19.575  -1.670 -0.66 -0.00    +0.000 N 
DOCKED: ATOM      9  H   UNL     1      21.853 -20.263  -1.833 -0.45 -0.00    +0.000 HD
DOCKED: BRANCH   8  10
DOCKED: ATOM     10  O   UNL     1      19.919 -19.740  -2.167 -1.89 -0.00    +0.000 OA
DOCKED: ATOM     11  H   UNL     1      19.328 -19.073  -1.784 -0.43 -0.00    +0.000 HD
DOCKED: ENDBRANCH   8  10
DOCKED: ENDBRANCH   5   7
DOCKED: ENDBRANCH   4   5
DOCKED: ENDBRANCH   3   4
DOCKED: ENDBRANCH   2   3
DOCKED: ENDBRANCH   1   2
DOCKED: BRANCH   1  12
DOCKED: ATOM     12  C   UNL     1      25.667 -14.228  -3.136 -0.42 -0.00    +0.000 C 
DOCKED: BRANCH  12  13
DOCKED: ATOM     13  C   UNL     1      26.571 -14.266  -4.334 -0.45 -0.00    +0.000 C 
DOCKED: ATOM     14  N   UNL     1      27.297 -15.464  -4.651 -0.43 -0.00    +0.000 N 
DOCKED: ATOM     15  O   UNL     1      26.691 -13.236  -5.051 -0.33 -0.00    +0.000 OA
DOCKED: ATOM     16  H   UNL     1      26.964 -16.315  -4.286 -0.02 -0.00    +0.000 HD
DOCKED: BRANCH  14  17
DOCKED: ATOM     17  C   UNL     1      28.481 -15.497  -5.466 -0.34 -0.00    +0.000 A 
DOCKED: ATOM     18  C   UNL     1      29.614 -16.189  -5.015 -0.27 -0.00    +0.000 A 
DOCKED: ATOM     19  C   UNL     1      30.780 -16.201  -5.782 -0.21 -0.00    +0.000 A 
DOCKED: ATOM     20  C   UNL     1      30.809 -15.507  -6.992 -0.24 -0.00    +0.000 A 
DOCKED: ATOM     21  N   UNL     1      29.713 -14.820  -7.409 -0.31 -0.00    +0.000 NA
DOCKED: ATOM     22  C   UNL     1      28.564 -14.795  -6.682 -0.27 -0.00    +0.000 A 
DOCKED: ENDBRANCH  14  17
DOCKED: ENDBRANCH  12  13
DOCKED: ENDBRANCH   1  12
DOCKED: TORSDOF 9
DOCKED: TER
DOCKED: ENDMDL
________________________________________________________________________________


	BEGINNING GENETIC ALGORITHM DOCKING 38 of 100
Run: 38 Seed: 1495060512 1087975862 [ Run 38 of 100 GA/GALS ]
Beginning LAMARCKIAN GENETIC ALGORITHM (LGA), with a maximum of 2500000 energy evaluations.

Final-Value: -13.823


	FINAL GENETIC ALGORITHM DOCKED STATE
	_______________________________________________


Detailed state:  trans 24.368 -17.108 0.522 quatxyzw 0.336467 0.362944 -0.849938 0.180742 center -0.121 -0.193 0.463 ntor 9 -8.0895 -174.4365 16.5306 79.0949 179.0513 -0.2332 -145.1613 -4.6405 -89.7484
State:	 24.368 -17.108   0.522   0.342  0.369 -0.864 159.174     -8.09 -174.44   16.53   79.09  179.05   -0.23 -145.16   -4.64  -89.75

DOCKED: MODEL       38
DOCKED: USER    Run = 38
DOCKED: USER    DPF = ligand_dock.biased.dpf
DOCKED: USER  
DOCKED: USER    Estimated Free Energy of Binding    =   -9.84 kcal/mol  [=(1)+(2)+(3)-(4)]
DOCKED: USER    Estimated Inhibition Constant, Ki   =   60.91 nM (nanomolar)  [Temperature = 298.15 K]
DOCKED: USER    
DOCKED: USER    (1) Final Intermolecular Energy     =  -12.53 kcal/mol
DOCKED: USER        vdW + Hbond + desolv Energy     =  -12.53 kcal/mol
DOCKED: USER        Electrostatic Energy            =   +0.00 kcal/mol
DOCKED: USER    (2) Final Total Internal Energy     =   -1.30 kcal/mol
DOCKED: USER    (3) Torsional Free Energy           =   +2.68 kcal/mol
DOCKED: USER    (4) Unbound System's Energy  [=(2)] =   -1.30 kcal/mol
DOCKED: USER    
DOCKED: USER    
DOCKED: USER    NEWDPF move ligand.pdbqt
DOCKED: USER    NEWDPF about -0.121000 -0.193000 0.463000
DOCKED: USER    NEWDPF tran0 24.368131 -17.108245 0.521602
DOCKED: USER    NEWDPF quaternion0 0.336467 0.362944 -0.849938 0.180742
DOCKED: USER    NEWDPF axisangle0 0.342101 0.369021 -0.864170 159.173991
DOCKED: USER    NEWDPF quat0 0.342101 0.369021 -0.864170 159.173991
DOCKED: USER    NEWDPF dihe0 -8.09 -174.44 16.53 79.09 179.05 -0.23 -145.16 -4.64 -89.75 
DOCKED: USER  keepresnum = 1 
DOCKED: USER  
DOCKED: REMARK  Name = 
DOCKED: REMARK  9 active torsions:
DOCKED: REMARK  status: ('A' for Active; 'I' for Inactive)
DOCKED: REMARK    1  A    between atoms: C_2  and  C_5
DOCKED: REMARK    2  A    between atoms: N_3  and  O_4
DOCKED: REMARK    3  A    between atoms: C_5  and  C_6
DOCKED: REMARK    4  A    between atoms: C_6  and  C_7
DOCKED: REMARK    5  A    between atoms: C_7  and  C_8
DOCKED: REMARK    6  A    between atoms: C_8  and  C_9
DOCKED: REMARK    7  A    between atoms: C_9  and  C_10
DOCKED: REMARK    8  A    between atoms: C_10  and  C_11
DOCKED: REMARK    9  A    between atoms: N_12  and  C_13
DOCKED: REMARK                            x       y       z     vdW  Elec       q    Type
DOCKED: REMARK                         _______ _______ _______ _____ _____    ______ ____
DOCKED: USER                              x       y       z     vdW  Elec       q    Type
DOCKED: USER                           _______ _______ _______ _____ _____    ______ ____
DOCKED: ROOT
DOCKED: ATOM      1  C   UNL     1      26.136 -14.798  -0.839 -0.37 -0.00    +0.000 C 
DOCKED: ENDROOT
DOCKED: BRANCH   1   2
DOCKED: ATOM      2  C   UNL     1      25.130 -15.759  -1.491 -0.44 -0.00    +0.000 C 
DOCKED: BRANCH   2   3
DOCKED: ATOM      3  C   UNL     1      25.162 -17.134  -0.811 -0.64 -0.00    +0.000 C 
DOCKED: BRANCH   3   4
DOCKED: ATOM      4  C   UNL     1      24.064 -18.081  -1.329 -0.76 -0.00    +0.000 C 
DOCKED: BRANCH   4   5
DOCKED: ATOM      5  C   UNL     1      23.010 -18.468  -0.278 -0.81 -0.00    +0.000 C 
DOCKED: BRANCH   5   7
DOCKED: ATOM      6  O   UNL     1      20.854 -17.531  -0.709 -2.10 -0.00    +0.000 OA
DOCKED: ATOM      7  C   UNL     1      21.626 -18.516  -0.857 -0.83 -0.00    +0.000 C 
DOCKED: ATOM      8  N   UNL     1      21.172 -19.681  -1.553 -0.67 -0.00    +0.000 N 
DOCKED: ATOM      9  H   UNL     1      21.780 -20.445  -1.673 -0.36 -0.00    +0.000 HD
DOCKED: BRANCH   8  10
DOCKED: ATOM     10  O   UNL     1      19.913 -19.739  -2.049 -1.89 -0.00    +0.000 OA
DOCKED: ATOM     11  H   UNL     1      19.408 -18.971  -1.742 -0.38 -0.00    +0.000 HD
DOCKED: ENDBRANCH   8  10
DOCKED: ENDBRANCH   5   7
DOCKED: ENDBRANCH   4   5
DOCKED: ENDBRANCH   3   4
DOCKED: ENDBRANCH   2   3
DOCKED: ENDBRANCH   1   2
DOCKED: BRANCH   1  12
DOCKED: ATOM     12  C   UNL     1      27.396 -15.523  -0.348 -0.33 -0.00    +0.000 C 
DOCKED: BRANCH  12  13
DOCKED: ATOM     13  C   UNL     1      28.126 -14.714   0.685 -0.26 -0.00    +0.000 C 
DOCKED: ATOM     14  N   UNL     1      27.800 -14.860   2.076 -0.24 -0.00    +0.000 N 
DOCKED: ATOM     15  O   UNL     1      29.019 -13.904   0.317 -0.13 -0.00    +0.000 OA
DOCKED: ATOM     16  H   UNL     1      27.348 -15.687   2.359 -0.38 -0.00    +0.000 HD
DOCKED: BRANCH  14  17
DOCKED: ATOM     17  C   UNL     1      28.092 -13.873   3.080 -0.33 -0.00    +0.000 A 
DOCKED: ATOM     18  C   UNL     1      28.601 -14.279   4.322 -0.45 -0.00    +0.000 A 
DOCKED: ATOM     19  C   UNL     1      28.858 -13.334   5.316 -0.38 -0.00    +0.000 A 
DOCKED: ATOM     20  C   UNL     1      28.591 -11.988   5.066 -0.28 -0.00    +0.000 A 
DOCKED: ATOM     21  N   UNL     1      28.074 -11.608   3.868 -0.25 +0.00    +0.000 NA
DOCKED: ATOM     22  C   UNL     1      27.818 -12.508   2.881 -0.25 -0.00    +0.000 A 
DOCKED: ENDBRANCH  14  17
DOCKED: ENDBRANCH  12  13
DOCKED: ENDBRANCH   1  12
DOCKED: TORSDOF 9
DOCKED: TER
DOCKED: ENDMDL
________________________________________________________________________________


	BEGINNING GENETIC ALGORITHM DOCKING 39 of 100
Run: 39 Seed: 1443016529 1714246238 [ Run 39 of 100 GA/GALS ]
Beginning LAMARCKIAN GENETIC ALGORITHM (LGA), with a maximum of 2500000 energy evaluations.

Final-Value: -13.469


	FINAL GENETIC ALGORITHM DOCKED STATE
	_______________________________________________


Detailed state:  trans 28.058 -19.303 -1.309 quatxyzw -0.188233 0.733186 -0.641015 -0.126910 center -0.121 -0.193 0.463 ntor 9 -6.1692 -138.1614 -155.9011 -155.2577 -179.1762 170.9653 42.1141 35.0565 179.6802
State:	 28.058 -19.303  -1.309  -0.190  0.739 -0.646 -165.418     -6.17 -138.16 -155.90 -155.26 -179.18  170.97   42.11   35.06  179.68

DOCKED: MODEL       39
DOCKED: USER    Run = 39
DOCKED: USER    DPF = ligand_dock.biased.dpf
DOCKED: USER  
DOCKED: USER    Estimated Free Energy of Binding    =   -9.36 kcal/mol  [=(1)+(2)+(3)-(4)]
DOCKED: USER    Estimated Inhibition Constant, Ki   =  137.23 nM (nanomolar)  [Temperature = 298.15 K]
DOCKED: USER    
DOCKED: USER    (1) Final Intermolecular Energy     =  -12.05 kcal/mol
DOCKED: USER        vdW + Hbond + desolv Energy     =  -12.05 kcal/mol
DOCKED: USER        Electrostatic Energy            =   +0.00 kcal/mol
DOCKED: USER    (2) Final Total Internal Energy     =   -1.42 kcal/mol
DOCKED: USER    (3) Torsional Free Energy           =   +2.68 kcal/mol
DOCKED: USER    (4) Unbound System's Energy  [=(2)] =   -1.42 kcal/mol
DOCKED: USER    
DOCKED: USER    
DOCKED: USER    NEWDPF move ligand.pdbqt
DOCKED: USER    NEWDPF about -0.121000 -0.193000 0.463000
DOCKED: USER    NEWDPF tran0 28.058119 -19.303005 -1.309385
DOCKED: USER    NEWDPF quaternion0 -0.188233 0.733186 -0.641015 -0.126910
DOCKED: USER    NEWDPF axisangle0 -0.189767 0.739163 -0.646240 -165.417885
DOCKED: USER    NEWDPF quat0 -0.189767 0.739163 -0.646240 -165.417885
DOCKED: USER    NEWDPF dihe0 -6.17 -138.16 -155.90 -155.26 -179.18 170.97 42.11 35.06 179.68 
DOCKED: USER  keepresnum = 1 
DOCKED: USER  
DOCKED: REMARK  Name = 
DOCKED: REMARK  9 active torsions:
DOCKED: REMARK  status: ('A' for Active; 'I' for Inactive)
DOCKED: REMARK    1  A    between atoms: C_2  and  C_5
DOCKED: REMARK    2  A    between atoms: N_3  and  O_4
DOCKED: REMARK    3  A    between atoms: C_5  and  C_6
DOCKED: REMARK    4  A    between atoms: C_6  and  C_7
DOCKED: REMARK    5  A    between atoms: C_7  and  C_8
DOCKED: REMARK    6  A    between atoms: C_8  and  C_9
DOCKED: REMARK    7  A    between atoms: C_9  and  C_10
DOCKED: REMARK    8  A    between atoms: C_10  and  C_11
DOCKED: REMARK    9  A    between atoms: N_12  and  C_13
DOCKED: REMARK                            x       y       z     vdW  Elec       q    Type
DOCKED: REMARK                         _______ _______ _______ _____ _____    ______ ____
DOCKED: USER                              x       y       z     vdW  Elec       q    Type
DOCKED: USER                           _______ _______ _______ _____ _____    ______ ____
DOCKED: ROOT
DOCKED: ATOM      1  C   UNL     1      26.257 -16.897  -0.176 -0.44 -0.00    +0.000 C 
DOCKED: ENDROOT
DOCKED: BRANCH   1   2
DOCKED: ATOM      2  C   UNL     1      26.065 -17.734  -1.450 -0.41 -0.00    +0.000 C 
DOCKED: BRANCH   2   3
DOCKED: ATOM      3  C   UNL     1      24.582 -17.805  -1.843 -0.63 -0.00    +0.000 C 
DOCKED: BRANCH   3   4
DOCKED: ATOM      4  C   UNL     1      23.643 -17.360  -0.708 -0.74 -0.00    +0.000 C 
DOCKED: BRANCH   4   5
DOCKED: ATOM      5  C   UNL     1      22.763 -18.483  -0.134 -0.79 -0.00    +0.000 C 
DOCKED: BRANCH   5   7
DOCKED: ATOM      6  O   UNL     1      20.637 -17.555  -0.708 -2.13 +0.00    +0.000 OA
DOCKED: ATOM      7  C   UNL     1      21.417 -18.541  -0.797 -0.84 -0.00    +0.000 C 
DOCKED: ATOM      8  N   UNL     1      21.007 -19.714  -1.505 -0.74 -0.00    +0.000 N 
DOCKED: ATOM      9  H   UNL     1      21.621 -20.479  -1.578 -0.32 -0.00    +0.000 HD
DOCKED: BRANCH   8  10
DOCKED: ATOM     10  O   UNL     1      19.781 -19.780  -2.076 -1.79 -0.00    +0.000 OA
DOCKED: ATOM     11  H   UNL     1      19.268 -18.994  -1.834 -0.48 -0.00    +0.000 HD
DOCKED: ENDBRANCH   8  10
DOCKED: ENDBRANCH   5   7
DOCKED: ENDBRANCH   4   5
DOCKED: ENDBRANCH   3   4
DOCKED: ENDBRANCH   2   3
DOCKED: ENDBRANCH   1   2
DOCKED: BRANCH   1  12
DOCKED: ATOM     12  C   UNL     1      27.488 -15.984  -0.264 -0.36 -0.00    +0.000 C 
DOCKED: BRANCH  12  13
DOCKED: ATOM     13  C   UNL     1      27.091 -14.540  -0.381 -0.30 -0.00    +0.000 C 
DOCKED: ATOM     14  N   UNL     1      27.663 -13.563   0.503 -0.20 -0.00    +0.000 N 
DOCKED: ATOM     15  O   UNL     1      26.249 -14.199  -1.255 -0.33 -0.00    +0.000 OA
DOCKED: ATOM     16  H   UNL     1      28.514 -13.782   0.945 -0.04 -0.00    +0.000 HD
DOCKED: BRANCH  14  17
DOCKED: ATOM     17  C   UNL     1      27.067 -12.284   0.783 -0.22 -0.00    +0.000 A 
DOCKED: ATOM     18  C   UNL     1      25.720 -12.216   1.163 -0.32 +0.00    +0.000 A 
DOCKED: ATOM     19  C   UNL     1      25.121 -10.979   1.406 -0.35 +0.00    +0.000 A 
DOCKED: ATOM     20  C   UNL     1      25.872  -9.814   1.252 -0.28 +0.00    +0.000 A 
DOCKED: ATOM     21  N   UNL     1      27.171  -9.889   0.859 -0.21 +0.00    +0.000 NA
DOCKED: ATOM     22  C   UNL     1      27.779 -11.082   0.620 -0.12 +0.00    +0.000 A 
DOCKED: ENDBRANCH  14  17
DOCKED: ENDBRANCH  12  13
DOCKED: ENDBRANCH   1  12
DOCKED: TORSDOF 9
DOCKED: TER
DOCKED: ENDMDL
________________________________________________________________________________


	BEGINNING GENETIC ALGORITHM DOCKING 40 of 100
Run: 40 Seed: 652589968 1647629752 [ Run 40 of 100 GA/GALS ]
Beginning LAMARCKIAN GENETIC ALGORITHM (LGA), with a maximum of 2500000 energy evaluations.

Final-Value: -13.236


	FINAL GENETIC ALGORITHM DOCKED STATE
	_______________________________________________


Detailed state:  trans 26.130 -16.381 1.207 quatxyzw -0.011259 -0.011908 0.928337 0.371379 center -0.121 -0.193 0.463 ntor 9 20.8991 -168.8319 -19.9379 -180.0000 -180.0000 173.5806 5.3092 169.2933 180.0000
State:	 26.130 -16.381   1.207  -0.012 -0.013  1.000 136.399     20.90 -168.83  -19.94 -180.00 -180.00  173.58    5.31  169.29  180.00

DOCKED: MODEL       40
DOCKED: USER    Run = 40
DOCKED: USER    DPF = ligand_dock.biased.dpf
DOCKED: USER  
DOCKED: USER    Estimated Free Energy of Binding    =   -9.38 kcal/mol  [=(1)+(2)+(3)-(4)]
DOCKED: USER    Estimated Inhibition Constant, Ki   =  133.64 nM (nanomolar)  [Temperature = 298.15 K]
DOCKED: USER    
DOCKED: USER    (1) Final Intermolecular Energy     =  -12.06 kcal/mol
DOCKED: USER        vdW + Hbond + desolv Energy     =  -12.06 kcal/mol
DOCKED: USER        Electrostatic Energy            =   +0.00 kcal/mol
DOCKED: USER    (2) Final Total Internal Energy     =   -1.17 kcal/mol
DOCKED: USER    (3) Torsional Free Energy           =   +2.68 kcal/mol
DOCKED: USER    (4) Unbound System's Energy  [=(2)] =   -1.17 kcal/mol
DOCKED: USER    
DOCKED: USER    
DOCKED: USER    NEWDPF move ligand.pdbqt
DOCKED: USER    NEWDPF about -0.121000 -0.193000 0.463000
DOCKED: USER    NEWDPF tran0 26.129971 -16.380681 1.207233
DOCKED: USER    NEWDPF quaternion0 -0.011259 -0.011908 0.928337 0.371379
DOCKED: USER    NEWDPF axisangle0 -0.012127 -0.012825 0.999844 136.398564
DOCKED: USER    NEWDPF quat0 -0.012127 -0.012825 0.999844 136.398564
DOCKED: USER    NEWDPF dihe0 20.90 -168.83 -19.94 -180.00 -180.00 173.58 5.31 169.29 180.00 
DOCKED: USER  keepresnum = 1 
DOCKED: USER  
DOCKED: REMARK  Name = 
DOCKED: REMARK  9 active torsions:
DOCKED: REMARK  status: ('A' for Active; 'I' for Inactive)
DOCKED: REMARK    1  A    between atoms: C_2  and  C_5
DOCKED: REMARK    2  A    between atoms: N_3  and  O_4
DOCKED: REMARK    3  A    between atoms: C_5  and  C_6
DOCKED: REMARK    4  A    between atoms: C_6  and  C_7
DOCKED: REMARK    5  A    between atoms: C_7  and  C_8
DOCKED: REMARK    6  A    between atoms: C_8  and  C_9
DOCKED: REMARK    7  A    between atoms: C_9  and  C_10
DOCKED: REMARK    8  A    between atoms: C_10  and  C_11
DOCKED: REMARK    9  A    between atoms: N_12  and  C_13
DOCKED: REMARK                            x       y       z     vdW  Elec       q    Type
DOCKED: REMARK                         _______ _______ _______ _____ _____    ______ ____
DOCKED: USER                              x       y       z     vdW  Elec       q    Type
DOCKED: USER                           _______ _______ _______ _____ _____    ______ ____
DOCKED: ROOT
DOCKED: ATOM      1  C   UNL     1      25.264 -16.240  -1.883 -0.58 -0.00    +0.000 C 
DOCKED: ENDROOT
DOCKED: BRANCH   1   2
DOCKED: ATOM      2  C   UNL     1      25.734 -17.451  -1.062 -0.63 -0.00    +0.000 C 
DOCKED: BRANCH   2   3
DOCKED: ATOM      3  C   UNL     1      24.618 -18.498  -0.937 -0.69 -0.00    +0.000 C 
DOCKED: BRANCH   3   4
DOCKED: ATOM      4  C   UNL     1      23.246 -17.962  -1.381 -0.72 -0.00    +0.000 C 
DOCKED: BRANCH   4   5
DOCKED: ATOM      5  C   UNL     1      22.209 -17.853  -0.250 -0.80 -0.00    +0.000 C 
DOCKED: BRANCH   5   7
DOCKED: ATOM      6  O   UNL     1      20.002 -18.240  -1.081 -1.89 -0.00    +0.000 OA
DOCKED: ATOM      7  C   UNL     1      21.010 -18.722  -0.497 -0.80 -0.00    +0.000 C 
DOCKED: ATOM      8  N   UNL     1      20.996 -20.081  -0.053 -0.65 -0.00    +0.000 N 
DOCKED: ATOM      9  H   UNL     1      21.787 -20.455   0.397 -0.59 -0.00    +0.000 HD
DOCKED: BRANCH   8  10
DOCKED: ATOM     10  O   UNL     1      19.903 -20.858  -0.246 -0.72 -0.00    +0.000 OA
DOCKED: ATOM     11  H   UNL     1      19.364 -20.485  -0.961 -0.50 -0.00    +0.000 HD
DOCKED: ENDBRANCH   8  10
DOCKED: ENDBRANCH   5   7
DOCKED: ENDBRANCH   4   5
DOCKED: ENDBRANCH   3   4
DOCKED: ENDBRANCH   2   3
DOCKED: ENDBRANCH   1   2
DOCKED: BRANCH   1  12
DOCKED: ATOM     12  C   UNL     1      26.390 -15.224  -2.114 -0.41 -0.00    +0.000 C 
DOCKED: BRANCH  12  13
DOCKED: ATOM     13  C   UNL     1      26.826 -15.207  -3.551 -0.44 -0.00    +0.000 C 
DOCKED: ATOM     14  N   UNL     1      27.973 -15.967  -3.964 -0.29 -0.00    +0.000 N 
DOCKED: ATOM     15  O   UNL     1      26.181 -14.515  -4.385 -0.54 -0.00    +0.000 OA
DOCKED: ATOM     16  H   UNL     1      28.259 -16.717  -3.395 -0.02 -0.00    +0.000 HD
DOCKED: BRANCH  14  17
DOCKED: ATOM     17  C   UNL     1      28.729 -15.700  -5.158 -0.32 -0.00    +0.000 A 
DOCKED: ATOM     18  C   UNL     1      29.749 -16.581  -5.543 -0.30 -0.00    +0.000 A 
DOCKED: ATOM     19  C   UNL     1      30.512 -16.316  -6.682 -0.29 -0.00    +0.000 A 
DOCKED: ATOM     20  C   UNL     1      30.257 -15.161  -7.421 -0.23 -0.00    +0.000 A 
DOCKED: ATOM     21  N   UNL     1      29.282 -14.301  -7.026 -0.33 -0.00    +0.000 NA
DOCKED: ATOM     22  C   UNL     1      28.523 -14.537  -5.923 -0.34 -0.00    +0.000 A 
DOCKED: ENDBRANCH  14  17
DOCKED: ENDBRANCH  12  13
DOCKED: ENDBRANCH   1  12
DOCKED: TORSDOF 9
DOCKED: TER
DOCKED: ENDMDL
________________________________________________________________________________


	BEGINNING GENETIC ALGORITHM DOCKING 41 of 100
Run: 41 Seed: 240534607 1524396264 [ Run 41 of 100 GA/GALS ]
Beginning LAMARCKIAN GENETIC ALGORITHM (LGA), with a maximum of 2500000 energy evaluations.

Final-Value: -14.937


	FINAL GENETIC ALGORITHM DOCKED STATE
	_______________________________________________


Detailed state:  trans 26.381 -14.943 -2.461 quatxyzw 0.326990 -0.871221 -0.365639 -0.018950 center -0.121 -0.193 0.463 ntor 9 -2.3028 -143.2357 170.9332 177.4124 179.4670 -30.9509 -9.9897 27.3231 58.4816
State:	 26.381 -14.943  -2.461   0.327 -0.871 -0.366 -177.828     -2.30 -143.24  170.93  177.41  179.47  -30.95   -9.99   27.32   58.48

DOCKED: MODEL       41
DOCKED: USER    Run = 41
DOCKED: USER    DPF = ligand_dock.biased.dpf
DOCKED: USER  
DOCKED: USER    Estimated Free Energy of Binding    =  -11.00 kcal/mol  [=(1)+(2)+(3)-(4)]
DOCKED: USER    Estimated Inhibition Constant, Ki   =    8.63 nM (nanomolar)  [Temperature = 298.15 K]
DOCKED: USER    
DOCKED: USER    (1) Final Intermolecular Energy     =  -13.69 kcal/mol
DOCKED: USER        vdW + Hbond + desolv Energy     =  -13.69 kcal/mol
DOCKED: USER        Electrostatic Energy            =   +0.00 kcal/mol
DOCKED: USER    (2) Final Total Internal Energy     =   -1.25 kcal/mol
DOCKED: USER    (3) Torsional Free Energy           =   +2.68 kcal/mol
DOCKED: USER    (4) Unbound System's Energy  [=(2)] =   -1.25 kcal/mol
DOCKED: USER    
DOCKED: USER    
DOCKED: USER    NEWDPF move ligand.pdbqt
DOCKED: USER    NEWDPF about -0.121000 -0.193000 0.463000
DOCKED: USER    NEWDPF tran0 26.380988 -14.943019 -2.460509
DOCKED: USER    NEWDPF quaternion0 0.326990 -0.871221 -0.365639 -0.018950
DOCKED: USER    NEWDPF axisangle0 0.327048 -0.871378 -0.365705 -177.828389
DOCKED: USER    NEWDPF quat0 0.327048 -0.871378 -0.365705 -177.828389
DOCKED: USER    NEWDPF dihe0 -2.30 -143.24 170.93 177.41 179.47 -30.95 -9.99 27.32 58.48 
DOCKED: USER  keepresnum = 1 
DOCKED: USER  
DOCKED: REMARK  Name = 
DOCKED: REMARK  9 active torsions:
DOCKED: REMARK  status: ('A' for Active; 'I' for Inactive)
DOCKED: REMARK    1  A    between atoms: C_2  and  C_5
DOCKED: REMARK    2  A    between atoms: N_3  and  O_4
DOCKED: REMARK    3  A    between atoms: C_5  and  C_6
DOCKED: REMARK    4  A    between atoms: C_6  and  C_7
DOCKED: REMARK    5  A    between atoms: C_7  and  C_8
DOCKED: REMARK    6  A    between atoms: C_8  and  C_9
DOCKED: REMARK    7  A    between atoms: C_9  and  C_10
DOCKED: REMARK    8  A    between atoms: C_10  and  C_11
DOCKED: REMARK    9  A    between atoms: N_12  and  C_13
DOCKED: REMARK                            x       y       z     vdW  Elec       q    Type
DOCKED: REMARK                         _______ _______ _______ _____ _____    ______ ____
DOCKED: USER                              x       y       z     vdW  Elec       q    Type
DOCKED: USER                           _______ _______ _______ _____ _____    ______ ____
DOCKED: ROOT
DOCKED: ATOM      1  C   UNL     1      27.096 -17.572  -0.760 -0.50 -0.00    +0.000 C 
DOCKED: ENDROOT
DOCKED: BRANCH   1   2
DOCKED: ATOM      2  C   UNL     1      25.834 -16.698  -0.707 -0.55 -0.00    +0.000 C 
DOCKED: BRANCH   2   3
DOCKED: ATOM      3  C   UNL     1      24.685 -17.341  -1.495 -0.69 -0.00    +0.000 C 
DOCKED: BRANCH   3   4
DOCKED: ATOM      4  C   UNL     1      23.313 -17.126  -0.831 -0.70 -0.00    +0.000 C 
DOCKED: BRANCH   4   5
DOCKED: ATOM      5  C   UNL     1      22.643 -18.415  -0.326 -0.83 -0.00    +0.000 C 
DOCKED: BRANCH   5   7
DOCKED: ATOM      6  O   UNL     1      20.351 -17.856  -0.707 -2.24 -0.00    +0.000 OA
DOCKED: ATOM      7  C   UNL     1      21.303 -18.641  -0.963 -0.82 -0.00    +0.000 C 
DOCKED: ATOM      8  N   UNL     1      21.094 -19.755  -1.837 -0.57 -0.00    +0.000 N 
DOCKED: ATOM      9  H   UNL     1      21.842 -20.362  -2.039 -0.47 -0.00    +0.000 HD
DOCKED: BRANCH   8  10
DOCKED: ATOM     10  O   UNL     1      19.878 -19.979  -2.388 -1.73 -0.00    +0.000 OA
DOCKED: ATOM     11  H   UNL     1      19.248 -19.318  -2.063 -0.45 -0.00    +0.000 HD
DOCKED: ENDBRANCH   8  10
DOCKED: ENDBRANCH   5   7
DOCKED: ENDBRANCH   4   5
DOCKED: ENDBRANCH   3   4
DOCKED: ENDBRANCH   2   3
DOCKED: ENDBRANCH   1   2
DOCKED: BRANCH   1  12
DOCKED: ATOM     12  C   UNL     1      28.332 -16.841  -0.217 -0.18 -0.00    +0.000 C 
DOCKED: BRANCH  12  13
DOCKED: ATOM     13  C   UNL     1      28.064 -15.374  -0.035 -0.28 -0.00    +0.000 C 
DOCKED: ATOM     14  N   UNL     1      28.208 -14.773   1.262 -0.25 -0.00    +0.000 N 
DOCKED: ATOM     15  O   UNL     1      27.704 -14.683  -1.026 -0.21 -0.00    +0.000 OA
DOCKED: ATOM     16  H   UNL     1      28.770 -15.234   1.924 -1.53 -0.00    +0.000 HD
DOCKED: BRANCH  14  17
DOCKED: ATOM     17  C   UNL     1      27.582 -13.538   1.651 -0.26 -0.00    +0.000 A 
DOCKED: ATOM     18  C   UNL     1      26.508 -13.040   0.901 -0.30 -0.00    +0.000 A 
DOCKED: ATOM     19  C   UNL     1      25.912 -11.827   1.248 -0.34 +0.00    +0.000 A 
DOCKED: ATOM     20  C   UNL     1      26.406 -11.111   2.339 -0.29 +0.00    +0.000 A 
DOCKED: ATOM     21  N   UNL     1      27.464 -11.590   3.045 -0.27 +0.00    +0.000 NA
DOCKED: ATOM     22  C   UNL     1      28.059 -12.771   2.729 -0.23 -0.00    +0.000 A 
DOCKED: ENDBRANCH  14  17
DOCKED: ENDBRANCH  12  13
DOCKED: ENDBRANCH   1  12
DOCKED: TORSDOF 9
DOCKED: TER
DOCKED: ENDMDL
________________________________________________________________________________


	BEGINNING GENETIC ALGORITHM DOCKING 42 of 100
Run: 42 Seed: 2047703019 1417168870 [ Run 42 of 100 GA/GALS ]
Beginning LAMARCKIAN GENETIC ALGORITHM (LGA), with a maximum of 2500000 energy evaluations.

Final-Value: -13.187


	FINAL GENETIC ALGORITHM DOCKED STATE
	_______________________________________________


Detailed state:  trans 24.472 -18.692 -1.540 quatxyzw 0.443554 -0.629125 0.000616 -0.638327 center -0.121 -0.193 0.463 ntor 9 68.2370 -177.1371 168.7830 71.2981 29.9033 -68.9782 -157.4107 -56.8661 128.1108
State:	 24.472 -18.692  -1.540   0.576 -0.817  0.001 -100.666     68.24 -177.14  168.78   71.30   29.90  -68.98 -157.41  -56.87  128.11

DOCKED: MODEL       42
DOCKED: USER    Run = 42
DOCKED: USER    DPF = ligand_dock.biased.dpf
DOCKED: USER  
DOCKED: USER    Estimated Free Energy of Binding    =   -9.59 kcal/mol  [=(1)+(2)+(3)-(4)]
DOCKED: USER    Estimated Inhibition Constant, Ki   =   93.87 nM (nanomolar)  [Temperature = 298.15 K]
DOCKED: USER    
DOCKED: USER    (1) Final Intermolecular Energy     =  -12.27 kcal/mol
DOCKED: USER        vdW + Hbond + desolv Energy     =  -12.27 kcal/mol
DOCKED: USER        Electrostatic Energy            =   +0.00 kcal/mol
DOCKED: USER    (2) Final Total Internal Energy     =   -0.92 kcal/mol
DOCKED: USER    (3) Torsional Free Energy           =   +2.68 kcal/mol
DOCKED: USER    (4) Unbound System's Energy  [=(2)] =   -0.92 kcal/mol
DOCKED: USER    
DOCKED: USER    
DOCKED: USER    NEWDPF move ligand.pdbqt
DOCKED: USER    NEWDPF about -0.121000 -0.193000 0.463000
DOCKED: USER    NEWDPF tran0 24.472018 -18.691749 -1.540149
DOCKED: USER    NEWDPF quaternion0 0.443554 -0.629125 0.000616 -0.638327
DOCKED: USER    NEWDPF axisangle0 0.576220 -0.817294 0.000800 -100.665643
DOCKED: USER    NEWDPF quat0 0.576220 -0.817294 0.000800 -100.665643
DOCKED: USER    NEWDPF dihe0 68.24 -177.14 168.78 71.30 29.90 -68.98 -157.41 -56.87 128.11 
DOCKED: USER  keepresnum = 1 
DOCKED: USER  
DOCKED: REMARK  Name = 
DOCKED: REMARK  9 active torsions:
DOCKED: REMARK  status: ('A' for Active; 'I' for Inactive)
DOCKED: REMARK    1  A    between atoms: C_2  and  C_5
DOCKED: REMARK    2  A    between atoms: N_3  and  O_4
DOCKED: REMARK    3  A    between atoms: C_5  and  C_6
DOCKED: REMARK    4  A    between atoms: C_6  and  C_7
DOCKED: REMARK    5  A    between atoms: C_7  and  C_8
DOCKED: REMARK    6  A    between atoms: C_8  and  C_9
DOCKED: REMARK    7  A    between atoms: C_9  and  C_10
DOCKED: REMARK    8  A    between atoms: C_10  and  C_11
DOCKED: REMARK    9  A    between atoms: N_12  and  C_13
DOCKED: REMARK                            x       y       z     vdW  Elec       q    Type
DOCKED: REMARK                         _______ _______ _______ _____ _____    ______ ____
DOCKED: USER                              x       y       z     vdW  Elec       q    Type
DOCKED: USER                           _______ _______ _______ _____ _____    ______ ____
DOCKED: ROOT
DOCKED: ATOM      1  C   UNL     1      27.443 -17.689  -0.841 -0.41 -0.00    +0.000 C 
DOCKED: ENDROOT
DOCKED: BRANCH   1   2
DOCKED: ATOM      2  C   UNL     1      26.192 -17.712   0.052 -0.58 -0.00    +0.000 C 
DOCKED: BRANCH   2   3
DOCKED: ATOM      3  C   UNL     1      24.977 -17.135  -0.688 -0.64 -0.00    +0.000 C 
DOCKED: BRANCH   3   4
DOCKED: ATOM      4  C   UNL     1      23.987 -18.222  -1.144 -0.79 -0.00    +0.000 C 
DOCKED: BRANCH   4   5
DOCKED: ATOM      5  C   UNL     1      22.811 -18.456  -0.180 -0.80 -0.00    +0.000 C 
DOCKED: BRANCH   5   7
DOCKED: ATOM      6  O   UNL     1      20.741 -17.493  -0.885 -2.08 -0.00    +0.000 OA
DOCKED: ATOM      7  C   UNL     1      21.494 -18.504  -0.898 -0.81 -0.00    +0.000 C 
DOCKED: ATOM      8  N   UNL     1      21.078 -19.694  -1.573 -0.70 -0.00    +0.000 N 
DOCKED: ATOM      9  H   UNL     1      21.672 -20.479  -1.587 -0.32 -0.00    +0.000 HD
DOCKED: BRANCH   8  10
DOCKED: ATOM     10  O   UNL     1      19.876 -19.750  -2.194 -1.89 -0.00    +0.000 OA
DOCKED: ATOM     11  H   UNL     1      19.883 -19.162  -2.965 -0.48 -0.00    +0.000 HD
DOCKED: ENDBRANCH   8  10
DOCKED: ENDBRANCH   5   7
DOCKED: ENDBRANCH   4   5
DOCKED: ENDBRANCH   3   4
DOCKED: ENDBRANCH   2   3
DOCKED: ENDBRANCH   1   2
DOCKED: BRANCH   1  12
DOCKED: ATOM     12  C   UNL     1      27.324 -16.664  -1.978 -0.37 -0.00    +0.000 C 
DOCKED: BRANCH  12  13
DOCKED: ATOM     13  C   UNL     1      27.091 -15.280  -1.445 -0.32 -0.00    +0.000 C 
DOCKED: ATOM     14  N   UNL     1      27.738 -14.856  -0.235 -0.23 -0.00    +0.000 N 
DOCKED: ATOM     15  O   UNL     1      26.317 -14.502  -2.064 -0.34 -0.00    +0.000 OA
DOCKED: ATOM     16  H   UNL     1      28.547 -15.339   0.049 -0.04 -0.00    +0.000 HD
DOCKED: BRANCH  14  17
DOCKED: ATOM     17  C   UNL     1      27.277 -13.770   0.588 -0.25 -0.00    +0.000 A 
DOCKED: ATOM     18  C   UNL     1      25.980 -13.269   0.408 -0.24 -0.00    +0.000 A 
DOCKED: ATOM     19  C   UNL     1      25.532 -12.194   1.178 -0.29 +0.00    +0.000 A 
DOCKED: ATOM     20  C   UNL     1      26.391 -11.617   2.113 -0.27 +0.00    +0.000 A 
DOCKED: ATOM     21  N   UNL     1      27.655 -12.095   2.262 -0.22 -0.00    +0.000 NA
DOCKED: ATOM     22  C   UNL     1      28.115 -13.143   1.528 -0.19 -0.00    +0.000 A 
DOCKED: ENDBRANCH  14  17
DOCKED: ENDBRANCH  12  13
DOCKED: ENDBRANCH   1  12
DOCKED: TORSDOF 9
DOCKED: TER
DOCKED: ENDMDL
________________________________________________________________________________


	BEGINNING GENETIC ALGORITHM DOCKING 43 of 100
Run: 43 Seed: 1605626802 378041620 [ Run 43 of 100 GA/GALS ]
Beginning LAMARCKIAN GENETIC ALGORITHM (LGA), with a maximum of 2500000 energy evaluations.

Final-Value: -13.437


	FINAL GENETIC ALGORITHM DOCKED STATE
	_______________________________________________


Detailed state:  trans 24.820 -17.497 -3.795 quatxyzw 0.273766 -0.904017 0.089937 -0.315779 center -0.121 -0.193 0.463 ntor 9 -6.4511 171.2263 176.1639 6.1027 19.4288 -104.0104 -51.7491 178.9024 101.6947
State:	 24.820 -17.497  -3.795   0.289 -0.953  0.095 -143.184     -6.45  171.23  176.16    6.10   19.43 -104.01  -51.75  178.90  101.69

DOCKED: MODEL       43
DOCKED: USER    Run = 43
DOCKED: USER    DPF = ligand_dock.biased.dpf
DOCKED: USER  
DOCKED: USER    Estimated Free Energy of Binding    =   -9.34 kcal/mol  [=(1)+(2)+(3)-(4)]
DOCKED: USER    Estimated Inhibition Constant, Ki   =  142.57 nM (nanomolar)  [Temperature = 298.15 K]
DOCKED: USER    
DOCKED: USER    (1) Final Intermolecular Energy     =  -12.02 kcal/mol
DOCKED: USER        vdW + Hbond + desolv Energy     =  -12.02 kcal/mol
DOCKED: USER        Electrostatic Energy            =   +0.00 kcal/mol
DOCKED: USER    (2) Final Total Internal Energy     =   -1.41 kcal/mol
DOCKED: USER    (3) Torsional Free Energy           =   +2.68 kcal/mol
DOCKED: USER    (4) Unbound System's Energy  [=(2)] =   -1.41 kcal/mol
DOCKED: USER    
DOCKED: USER    
DOCKED: USER    NEWDPF move ligand.pdbqt
DOCKED: USER    NEWDPF about -0.121000 -0.193000 0.463000
DOCKED: USER    NEWDPF tran0 24.819938 -17.497343 -3.795192
DOCKED: USER    NEWDPF quaternion0 0.273766 -0.904017 0.089937 -0.315779
DOCKED: USER    NEWDPF axisangle0 0.288529 -0.952768 0.094787 -143.184326
DOCKED: USER    NEWDPF quat0 0.288529 -0.952768 0.094787 -143.184326
DOCKED: USER    NEWDPF dihe0 -6.45 171.23 176.16 6.10 19.43 -104.01 -51.75 178.90 101.69 
DOCKED: USER  keepresnum = 1 
DOCKED: USER  
DOCKED: REMARK  Name = 
DOCKED: REMARK  9 active torsions:
DOCKED: REMARK  status: ('A' for Active; 'I' for Inactive)
DOCKED: REMARK    1  A    between atoms: C_2  and  C_5
DOCKED: REMARK    2  A    between atoms: N_3  and  O_4
DOCKED: REMARK    3  A    between atoms: C_5  and  C_6
DOCKED: REMARK    4  A    between atoms: C_6  and  C_7
DOCKED: REMARK    5  A    between atoms: C_7  and  C_8
DOCKED: REMARK    6  A    between atoms: C_8  and  C_9
DOCKED: REMARK    7  A    between atoms: C_9  and  C_10
DOCKED: REMARK    8  A    between atoms: C_10  and  C_11
DOCKED: REMARK    9  A    between atoms: N_12  and  C_13
DOCKED: REMARK                            x       y       z     vdW  Elec       q    Type
DOCKED: REMARK                         _______ _______ _______ _____ _____    ______ ____
DOCKED: USER                              x       y       z     vdW  Elec       q    Type
DOCKED: USER                           _______ _______ _______ _____ _____    ______ ____
DOCKED: ROOT
DOCKED: ATOM      1  C   UNL     1      26.386 -17.284  -0.999 -0.56 -0.00    +0.000 C 
DOCKED: ENDROOT
DOCKED: BRANCH   1   2
DOCKED: ATOM      2  C   UNL     1      24.979 -16.783  -1.362 -0.63 -0.00    +0.000 C 
DOCKED: BRANCH   2   3
DOCKED: ATOM      3  C   UNL     1      24.089 -17.939  -1.840 -0.64 -0.00    +0.000 C 
DOCKED: BRANCH   3   4
DOCKED: ATOM      4  C   UNL     1      23.713 -18.909  -0.706 -0.77 -0.00    +0.000 C 
DOCKED: BRANCH   4   5
DOCKED: ATOM      5  C   UNL     1      22.480 -18.486   0.109 -0.74 -0.00    +0.000 C 
DOCKED: BRANCH   5   7
DOCKED: ATOM      6  O   UNL     1      20.610 -17.485  -0.992 -2.09 -0.00    +0.000 OA
DOCKED: ATOM      7  C   UNL     1      21.218 -18.550  -0.702 -0.85 -0.00    +0.000 C 
DOCKED: ATOM      8  N   UNL     1      20.690 -19.811  -1.124 -0.78 -0.00    +0.000 N 
DOCKED: ATOM      9  H   UNL     1      21.171 -20.640  -0.901 -0.05 -0.00    +0.000 HD
DOCKED: BRANCH   8  10
DOCKED: ATOM     10  O   UNL     1      19.535 -19.873  -1.829 -1.59 -0.00    +0.000 OA
DOCKED: ATOM     11  H   UNL     1      19.138 -18.990  -1.877 -0.54 -0.00    +0.000 HD
DOCKED: ENDBRANCH   8  10
DOCKED: ENDBRANCH   5   7
DOCKED: ENDBRANCH   4   5
DOCKED: ENDBRANCH   3   4
DOCKED: ENDBRANCH   2   3
DOCKED: ENDBRANCH   1   2
DOCKED: BRANCH   1  12
DOCKED: ATOM     12  C   UNL     1      27.487 -16.492  -1.718 -0.38 -0.00    +0.000 C 
DOCKED: BRANCH  12  13
DOCKED: ATOM     13  C   UNL     1      27.075 -15.067  -1.948 -0.31 -0.00    +0.000 C 
DOCKED: ATOM     14  N   UNL     1      26.338 -14.713  -3.130 -0.37 -0.00    +0.000 N 
DOCKED: ATOM     15  O   UNL     1      27.389 -14.188  -1.101 -0.22 -0.00    +0.000 OA
DOCKED: ATOM     16  H   UNL     1      25.848 -15.426  -3.599 -0.03 -0.00    +0.000 HD
DOCKED: BRANCH  14  17
DOCKED: ATOM     17  C   UNL     1      26.273 -13.382  -3.670 -0.31 -0.00    +0.000 A 
DOCKED: ATOM     18  C   UNL     1      27.281 -12.458  -3.358 -0.16 -0.00    +0.000 A 
DOCKED: ATOM     19  C   UNL     1      27.212 -11.154  -3.849 -0.12 -0.00    +0.000 A 
DOCKED: ATOM     20  C   UNL     1      26.125 -10.776  -4.638 -0.23 -0.00    +0.000 A 
DOCKED: ATOM     21  N   UNL     1      25.141 -11.672  -4.914 -0.40 -0.00    +0.000 NA
DOCKED: ATOM     22  C   UNL     1      25.186 -12.950  -4.452 -0.26 -0.00    +0.000 A 
DOCKED: ENDBRANCH  14  17
DOCKED: ENDBRANCH  12  13
DOCKED: ENDBRANCH   1  12
DOCKED: TORSDOF 9
DOCKED: TER
DOCKED: ENDMDL
________________________________________________________________________________


	BEGINNING GENETIC ALGORITHM DOCKING 44 of 100
Run: 44 Seed: 1844725491 21085974 [ Run 44 of 100 GA/GALS ]
Beginning LAMARCKIAN GENETIC ALGORITHM (LGA), with a maximum of 2500000 energy evaluations.

Final-Value: -11.672


	FINAL GENETIC ALGORITHM DOCKED STATE
	_______________________________________________


Detailed state:  trans 28.078 -9.787 1.885 quatxyzw -0.154477 -0.592250 -0.782637 0.113384 center -0.121 -0.193 0.463 ntor 9 2.6366 19.1155 -57.7219 -99.0197 48.5027 25.9542 -135.0320 -29.2105 179.6850
State:	 28.078  -9.787   1.885  -0.155 -0.596 -0.788 166.979      2.64   19.12  -57.72  -99.02   48.50   25.95 -135.03  -29.21  179.69

DOCKED: MODEL       44
DOCKED: USER    Run = 44
DOCKED: USER    DPF = ligand_dock.biased.dpf
DOCKED: USER  
DOCKED: USER    Estimated Free Energy of Binding    =   -6.38 kcal/mol  [=(1)+(2)+(3)-(4)]
DOCKED: USER    Estimated Inhibition Constant, Ki   =   21.06 uM (micromolar)  [Temperature = 298.15 K]
DOCKED: USER    
DOCKED: USER    (1) Final Intermolecular Energy     =   -9.06 kcal/mol
DOCKED: USER        vdW + Hbond + desolv Energy     =   -9.06 kcal/mol
DOCKED: USER        Electrostatic Energy            =   +0.00 kcal/mol
DOCKED: USER    (2) Final Total Internal Energy     =   -2.61 kcal/mol
DOCKED: USER    (3) Torsional Free Energy           =   +2.68 kcal/mol
DOCKED: USER    (4) Unbound System's Energy  [=(2)] =   -2.61 kcal/mol
DOCKED: USER    
DOCKED: USER    
DOCKED: USER    NEWDPF move ligand.pdbqt
DOCKED: USER    NEWDPF about -0.121000 -0.193000 0.463000
DOCKED: USER    NEWDPF tran0 28.078001 -9.786721 1.884623
DOCKED: USER    NEWDPF quaternion0 -0.154477 -0.592250 -0.782637 0.113384
DOCKED: USER    NEWDPF axisangle0 -0.155480 -0.596094 -0.787717 166.979165
DOCKED: USER    NEWDPF quat0 -0.155480 -0.596094 -0.787717 166.979165
DOCKED: USER    NEWDPF dihe0 2.64 19.12 -57.72 -99.02 48.50 25.95 -135.03 -29.21 179.69 
DOCKED: USER  keepresnum = 1 
DOCKED: USER  
DOCKED: REMARK  Name = 
DOCKED: REMARK  9 active torsions:
DOCKED: REMARK  status: ('A' for Active; 'I' for Inactive)
DOCKED: REMARK    1  A    between atoms: C_2  and  C_5
DOCKED: REMARK    2  A    between atoms: N_3  and  O_4
DOCKED: REMARK    3  A    between atoms: C_5  and  C_6
DOCKED: REMARK    4  A    between atoms: C_6  and  C_7
DOCKED: REMARK    5  A    between atoms: C_7  and  C_8
DOCKED: REMARK    6  A    between atoms: C_8  and  C_9
DOCKED: REMARK    7  A    between atoms: C_9  and  C_10
DOCKED: REMARK    8  A    between atoms: C_10  and  C_11
DOCKED: REMARK    9  A    between atoms: N_12  and  C_13
DOCKED: REMARK                            x       y       z     vdW  Elec       q    Type
DOCKED: REMARK                         _______ _______ _______ _____ _____    ______ ____
DOCKED: USER                              x       y       z     vdW  Elec       q    Type
DOCKED: USER                           _______ _______ _______ _____ _____    ______ ____
DOCKED: ROOT
DOCKED: ATOM      1  C   UNL     1      26.339 -12.132   0.547 -0.27 -0.00    +0.000 C 
DOCKED: ENDROOT
DOCKED: BRANCH   1   2
DOCKED: ATOM      2  C   UNL     1      26.230 -11.529   1.955 -0.36 +0.00    +0.000 C 
DOCKED: BRANCH   2   3
DOCKED: ATOM      3  C   UNL     1      27.564 -10.908   2.393 -0.25 +0.00    +0.000 C 
DOCKED: BRANCH   3   4
DOCKED: ATOM      4  C   UNL     1      27.669 -10.736   3.919 -0.32 +0.00    +0.000 C 
DOCKED: BRANCH   4   5
DOCKED: ATOM      5  C   UNL     1      28.752 -11.602   4.584 -0.25 +0.00    +0.000 C 
DOCKED: BRANCH   5   7
DOCKED: ATOM      6  O   UNL     1      29.712 -13.161   3.048 -0.16 -0.00    +0.000 OA
DOCKED: ATOM      7  C   UNL     1      28.857 -12.960   3.952 -0.28 -0.00    +0.000 C 
DOCKED: ATOM      8  N   UNL     1      27.978 -14.015   4.351 -0.51 -0.00    +0.000 N 
DOCKED: ATOM      9  H   UNL     1      27.316 -13.856   5.062 -0.05 -0.00    +0.000 HD
DOCKED: BRANCH   8  10
DOCKED: ATOM     10  O   UNL     1      28.049 -15.232   3.760 -0.48 -0.00    +0.000 OA
DOCKED: ATOM     11  H   UNL     1      28.774 -15.237   3.117 -1.71 -0.00    +0.000 HD
DOCKED: ENDBRANCH   8  10
DOCKED: ENDBRANCH   5   7
DOCKED: ENDBRANCH   4   5
DOCKED: ENDBRANCH   3   4
DOCKED: ENDBRANCH   2   3
DOCKED: ENDBRANCH   1   2
DOCKED: BRANCH   1  12
DOCKED: ATOM     12  C   UNL     1      27.634 -12.935   0.358 -0.20 -0.00    +0.000 C 
DOCKED: BRANCH  12  13
DOCKED: ATOM     13  C   UNL     1      27.357 -14.408   0.270 -0.29 -0.00    +0.000 C 
DOCKED: ATOM     14  N   UNL     1      26.595 -14.933  -0.829 -0.31 -0.00    +0.000 N 
DOCKED: ATOM     15  O   UNL     1      27.792 -15.174   1.172 -0.34 -0.00    +0.000 OA
DOCKED: ATOM     16  H   UNL     1      26.539 -14.394  -1.650 -0.00 -0.00    +0.000 HD
DOCKED: BRANCH  14  17
DOCKED: ATOM     17  C   UNL     1      25.909 -16.196  -0.802 -0.43 -0.00    +0.000 A 
DOCKED: ATOM     18  C   UNL     1      24.728 -16.358  -1.540 -0.50 -0.00    +0.000 A 
DOCKED: ATOM     19  C   UNL     1      24.035 -17.569  -1.497 -0.63 -0.00    +0.000 A 
DOCKED: ATOM     20  C   UNL     1      24.522 -18.608  -0.704 -0.66 -0.00    +0.000 A 
DOCKED: ATOM     21  N   UNL     1      25.655 -18.433   0.026 -0.64 -0.00    +0.000 NA
DOCKED: ATOM     22  C   UNL     1      26.350 -17.264  -0.000 -0.42 -0.00    +0.000 A 
DOCKED: ENDBRANCH  14  17
DOCKED: ENDBRANCH  12  13
DOCKED: ENDBRANCH   1  12
DOCKED: TORSDOF 9
DOCKED: TER
DOCKED: ENDMDL
________________________________________________________________________________


	BEGINNING GENETIC ALGORITHM DOCKING 45 of 100
Run: 45 Seed: 1547563771 1405405026 [ Run 45 of 100 GA/GALS ]
Beginning LAMARCKIAN GENETIC ALGORITHM (LGA), with a maximum of 2500000 energy evaluations.

Final-Value: -13.443


	FINAL GENETIC ALGORITHM DOCKED STATE
	_______________________________________________


Detailed state:  trans 24.820 -18.694 -1.897 quatxyzw -0.661846 0.474238 -0.129014 0.566052 center -0.121 -0.193 0.463 ntor 9 13.8241 52.2572 -123.4753 109.8832 -4.0291 44.7829 -91.1863 -164.7899 -58.7172
State:	 24.820 -18.694  -1.897  -0.803  0.575 -0.156 111.049     13.82   52.26 -123.48  109.88   -4.03   44.78  -91.19 -164.79  -58.72

DOCKED: MODEL       45
DOCKED: USER    Run = 45
DOCKED: USER    DPF = ligand_dock.biased.dpf
DOCKED: USER  
DOCKED: USER    Estimated Free Energy of Binding    =   -9.35 kcal/mol  [=(1)+(2)+(3)-(4)]
DOCKED: USER    Estimated Inhibition Constant, Ki   =  140.79 nM (nanomolar)  [Temperature = 298.15 K]
DOCKED: USER    
DOCKED: USER    (1) Final Intermolecular Energy     =  -12.03 kcal/mol
DOCKED: USER        vdW + Hbond + desolv Energy     =  -12.03 kcal/mol
DOCKED: USER        Electrostatic Energy            =   +0.00 kcal/mol
DOCKED: USER    (2) Final Total Internal Energy     =   -1.41 kcal/mol
DOCKED: USER    (3) Torsional Free Energy           =   +2.68 kcal/mol
DOCKED: USER    (4) Unbound System's Energy  [=(2)] =   -1.41 kcal/mol
DOCKED: USER    
DOCKED: USER    
DOCKED: USER    NEWDPF move ligand.pdbqt
DOCKED: USER    NEWDPF about -0.121000 -0.193000 0.463000
DOCKED: USER    NEWDPF tran0 24.820182 -18.694258 -1.896510
DOCKED: USER    NEWDPF quaternion0 -0.661846 0.474238 -0.129014 0.566052
DOCKED: USER    NEWDPF axisangle0 -0.802850 0.575273 -0.156500 111.049283
DOCKED: USER    NEWDPF quat0 -0.802850 0.575273 -0.156500 111.049283
DOCKED: USER    NEWDPF dihe0 13.82 52.26 -123.48 109.88 -4.03 44.78 -91.19 -164.79 -58.72 
DOCKED: USER  keepresnum = 1 
DOCKED: USER  
DOCKED: REMARK  Name = 
DOCKED: REMARK  9 active torsions:
DOCKED: REMARK  status: ('A' for Active; 'I' for Inactive)
DOCKED: REMARK    1  A    between atoms: C_2  and  C_5
DOCKED: REMARK    2  A    between atoms: N_3  and  O_4
DOCKED: REMARK    3  A    between atoms: C_5  and  C_6
DOCKED: REMARK    4  A    between atoms: C_6  and  C_7
DOCKED: REMARK    5  A    between atoms: C_7  and  C_8
DOCKED: REMARK    6  A    between atoms: C_8  and  C_9
DOCKED: REMARK    7  A    between atoms: C_9  and  C_10
DOCKED: REMARK    8  A    between atoms: C_10  and  C_11
DOCKED: REMARK    9  A    between atoms: N_12  and  C_13
DOCKED: REMARK                            x       y       z     vdW  Elec       q    Type
DOCKED: REMARK                         _______ _______ _______ _____ _____    ______ ____
DOCKED: USER                              x       y       z     vdW  Elec       q    Type
DOCKED: USER                           _______ _______ _______ _____ _____    ______ ____
DOCKED: ROOT
DOCKED: ATOM      1  C   UNL     1      26.778 -16.367  -0.864 -0.46 -0.00    +0.000 C 
DOCKED: ENDROOT
DOCKED: BRANCH   1   2
DOCKED: ATOM      2  C   UNL     1      25.789 -17.227  -0.063 -0.39 -0.00    +0.000 C 
DOCKED: BRANCH   2   3
DOCKED: ATOM      3  C   UNL     1      25.417 -18.502  -0.834 -0.53 -0.00    +0.000 C 
DOCKED: BRANCH   3   4
DOCKED: ATOM      4  C   UNL     1      23.933 -18.879  -0.681 -0.73 -0.00    +0.000 C 
DOCKED: BRANCH   4   5
DOCKED: ATOM      5  C   UNL     1      22.951 -17.828  -1.225 -0.68 -0.00    +0.000 C 
DOCKED: BRANCH   5   7
DOCKED: ATOM      6  O   UNL     1      20.625 -17.643  -0.707 -2.18 +0.00    +0.000 OA
DOCKED: ATOM      7  C   UNL     1      21.537 -18.331  -1.240 -0.38 -0.00    +0.000 C 
DOCKED: ATOM      8  N   UNL     1      21.223 -19.595  -1.833 -0.58 -0.00    +0.000 N 
DOCKED: ATOM      9  H   UNL     1      21.936 -20.126  -2.254 -0.57 -0.00    +0.000 HD
DOCKED: BRANCH   8  10
DOCKED: ATOM     10  O   UNL     1      19.953 -20.065  -1.820 -1.76 -0.00    +0.000 OA
DOCKED: ATOM     11  H   UNL     1      19.345 -19.350  -1.575 -0.35 -0.00    +0.000 HD
DOCKED: ENDBRANCH   8  10
DOCKED: ENDBRANCH   5   7
DOCKED: ENDBRANCH   4   5
DOCKED: ENDBRANCH   3   4
DOCKED: ENDBRANCH   2   3
DOCKED: ENDBRANCH   1   2
DOCKED: BRANCH   1  12
DOCKED: ATOM     12  C   UNL     1      26.065 -15.395  -1.814 -0.45 -0.00    +0.000 C 
DOCKED: BRANCH  12  13
DOCKED: ATOM     13  C   UNL     1      26.605 -15.499  -3.211 -0.45 -0.00    +0.000 C 
DOCKED: ATOM     14  N   UNL     1      27.921 -15.007  -3.511 -0.24 -0.00    +0.000 N 
DOCKED: ATOM     15  O   UNL     1      25.891 -16.012  -4.114 -0.63 -0.00    +0.000 OA
DOCKED: ATOM     16  H   UNL     1      28.557 -14.907  -2.767 +0.01 -0.00    +0.000 HD
DOCKED: BRANCH  14  17
DOCKED: ATOM     17  C   UNL     1      28.367 -14.653  -4.832 -0.28 -0.00    +0.000 A 
DOCKED: ATOM     18  C   UNL     1      28.061 -13.386  -5.348 -0.22 -0.00    +0.000 A 
DOCKED: ATOM     19  C   UNL     1      28.460 -13.041  -6.641 -0.23 -0.00    +0.000 A 
DOCKED: ATOM     20  C   UNL     1      29.150 -13.974  -7.415 -0.27 -0.00    +0.000 A 
DOCKED: ATOM     21  N   UNL     1      29.419 -15.208  -6.914 -0.33 -0.00    +0.000 NA
DOCKED: ATOM     22  C   UNL     1      29.046 -15.568  -5.657 -0.33 -0.00    +0.000 A 
DOCKED: ENDBRANCH  14  17
DOCKED: ENDBRANCH  12  13
DOCKED: ENDBRANCH   1  12
DOCKED: TORSDOF 9
DOCKED: TER
DOCKED: ENDMDL
________________________________________________________________________________


	BEGINNING GENETIC ALGORITHM DOCKING 46 of 100
Run: 46 Seed: 1076999401 1844199507 [ Run 46 of 100 GA/GALS ]
Beginning LAMARCKIAN GENETIC ALGORITHM (LGA), with a maximum of 2500000 energy evaluations.

Final-Value: -14.560


	FINAL GENETIC ALGORITHM DOCKED STATE
	_______________________________________________


Detailed state:  trans 23.946 -18.156 -2.049 quatxyzw 0.554934 -0.443201 -0.056134 -0.701762 center -0.121 -0.193 0.463 ntor 9 2.7803 166.1199 -97.2072 71.4400 51.7698 -68.9728 -155.8000 -179.4504 -101.5395
State:	 23.946 -18.156  -2.049   0.779 -0.622 -0.079 -90.863      2.78  166.12  -97.21   71.44   51.77  -68.97 -155.80 -179.45 -101.54

DOCKED: MODEL       46
DOCKED: USER    Run = 46
DOCKED: USER    DPF = ligand_dock.biased.dpf
DOCKED: USER  
DOCKED: USER    Estimated Free Energy of Binding    =  -10.61 kcal/mol  [=(1)+(2)+(3)-(4)]
DOCKED: USER    Estimated Inhibition Constant, Ki   =   16.80 nM (nanomolar)  [Temperature = 298.15 K]
DOCKED: USER    
DOCKED: USER    (1) Final Intermolecular Energy     =  -13.29 kcal/mol
DOCKED: USER        vdW + Hbond + desolv Energy     =  -13.29 kcal/mol
DOCKED: USER        Electrostatic Energy            =   +0.00 kcal/mol
DOCKED: USER    (2) Final Total Internal Energy     =   -1.27 kcal/mol
DOCKED: USER    (3) Torsional Free Energy           =   +2.68 kcal/mol
DOCKED: USER    (4) Unbound System's Energy  [=(2)] =   -1.27 kcal/mol
DOCKED: USER    
DOCKED: USER    
DOCKED: USER    NEWDPF move ligand.pdbqt
DOCKED: USER    NEWDPF about -0.121000 -0.193000 0.463000
DOCKED: USER    NEWDPF tran0 23.946174 -18.156103 -2.049408
DOCKED: USER    NEWDPF quaternion0 0.554934 -0.443201 -0.056134 -0.701762
DOCKED: USER    NEWDPF axisangle0 0.778952 -0.622114 -0.078794 -90.862983
DOCKED: USER    NEWDPF quat0 0.778952 -0.622114 -0.078794 -90.862983
DOCKED: USER    NEWDPF dihe0 2.78 166.12 -97.21 71.44 51.77 -68.97 -155.80 -179.45 -101.54 
DOCKED: USER  keepresnum = 1 
DOCKED: USER  
DOCKED: REMARK  Name = 
DOCKED: REMARK  9 active torsions:
DOCKED: REMARK  status: ('A' for Active; 'I' for Inactive)
DOCKED: REMARK    1  A    between atoms: C_2  and  C_5
DOCKED: REMARK    2  A    between atoms: N_3  and  O_4
DOCKED: REMARK    3  A    between atoms: C_5  and  C_6
DOCKED: REMARK    4  A    between atoms: C_6  and  C_7
DOCKED: REMARK    5  A    between atoms: C_7  and  C_8
DOCKED: REMARK    6  A    between atoms: C_8  and  C_9
DOCKED: REMARK    7  A    between atoms: C_9  and  C_10
DOCKED: REMARK    8  A    between atoms: C_10  and  C_11
DOCKED: REMARK    9  A    between atoms: N_12  and  C_13
DOCKED: REMARK                            x       y       z     vdW  Elec       q    Type
DOCKED: REMARK                         _______ _______ _______ _____ _____    ______ ____
DOCKED: USER                              x       y       z     vdW  Elec       q    Type
DOCKED: USER                           _______ _______ _______ _____ _____    ______ ____
DOCKED: ROOT
DOCKED: ATOM      1  C   UNL     1      26.700 -16.512  -2.219 -0.40 -0.00    +0.000 C 
DOCKED: ENDROOT
DOCKED: BRANCH   1   2
DOCKED: ATOM      2  C   UNL     1      25.909 -16.951  -0.977 -0.58 -0.00    +0.000 C 
DOCKED: BRANCH   2   3
DOCKED: ATOM      3  C   UNL     1      24.411 -16.662  -1.148 -0.61 -0.00    +0.000 C 
DOCKED: BRANCH   3   4
DOCKED: ATOM      4  C   UNL     1      23.588 -17.932  -1.433 -0.75 -0.00    +0.000 C 
DOCKED: BRANCH   4   5
DOCKED: ATOM      5  C   UNL     1      22.534 -18.259  -0.362 -0.84 -0.00    +0.000 C 
DOCKED: BRANCH   5   7
DOCKED: ATOM      6  O   UNL     1      20.203 -17.862  -0.707 -2.16 +0.00    +0.000 OA
DOCKED: ATOM      7  C   UNL     1      21.199 -18.589  -0.966 -0.81 -0.00    +0.000 C 
DOCKED: ATOM      8  N   UNL     1      21.048 -19.733  -1.811 -0.65 -0.00    +0.000 N 
DOCKED: ATOM      9  H   UNL     1      21.830 -20.294  -2.016 -0.49 -0.00    +0.000 HD
DOCKED: BRANCH   8  10
DOCKED: ATOM     10  O   UNL     1      19.838 -20.050  -2.331 -1.70 -0.00    +0.000 OA
DOCKED: ATOM     11  H   UNL     1      19.189 -19.379  -2.072 -0.48 -0.00    +0.000 HD
DOCKED: ENDBRANCH   8  10
DOCKED: ENDBRANCH   5   7
DOCKED: ENDBRANCH   4   5
DOCKED: ENDBRANCH   3   4
DOCKED: ENDBRANCH   2   3
DOCKED: ENDBRANCH   1   2
DOCKED: BRANCH   1  12
DOCKED: ATOM     12  C   UNL     1      25.964 -15.433  -3.024 -0.52 -0.00    +0.000 C 
DOCKED: BRANCH  12  13
DOCKED: ATOM     13  C   UNL     1      26.650 -15.161  -4.332 -0.53 -0.00    +0.000 C 
DOCKED: ATOM     14  N   UNL     1      27.734 -14.221  -4.394 -0.26 -0.00    +0.000 N 
DOCKED: ATOM     15  O   UNL     1      26.260 -15.760  -5.370 -1.15 +0.00    +0.000 OA
DOCKED: ATOM     16  H   UNL     1      28.213 -14.012  -3.560 +0.01 -0.00    +0.000 HD
DOCKED: BRANCH  14  17
DOCKED: ATOM     17  C   UNL     1      28.163 -13.565  -5.600 -0.25 -0.00    +0.000 A 
DOCKED: ATOM     18  C   UNL     1      27.916 -12.195  -5.768 -0.16 -0.00    +0.000 A 
DOCKED: ATOM     19  C   UNL     1      28.298 -11.553  -6.947 -0.14 -0.00    +0.000 A 
DOCKED: ATOM     20  C   UNL     1      28.913 -12.292  -7.959 -0.21 -0.00    +0.000 A 
DOCKED: ATOM     21  N   UNL     1      29.125 -13.624  -7.796 -0.29 -0.00    +0.000 NA
DOCKED: ATOM     22  C   UNL     1      28.766 -14.272  -6.656 -0.32 -0.00    +0.000 A 
DOCKED: ENDBRANCH  14  17
DOCKED: ENDBRANCH  12  13
DOCKED: ENDBRANCH   1  12
DOCKED: TORSDOF 9
DOCKED: TER
DOCKED: ENDMDL
________________________________________________________________________________


	BEGINNING GENETIC ALGORITHM DOCKING 47 of 100
Run: 47 Seed: 1980377490 1255621539 [ Run 47 of 100 GA/GALS ]
Beginning LAMARCKIAN GENETIC ALGORITHM (LGA), with a maximum of 2500000 energy evaluations.

Final-Value: -13.655


	FINAL GENETIC ALGORITHM DOCKED STATE
	_______________________________________________


Detailed state:  trans 24.213 -17.519 -1.857 quatxyzw 0.729735 -0.563191 -0.235011 -0.308338 center -0.121 -0.193 0.463 ntor 9 27.7698 -39.9936 -167.1211 128.3489 161.0644 37.0358 -105.5383 -85.5601 -43.2151
State:	 24.213 -17.519  -1.857   0.767 -0.592 -0.247 -144.082     27.77  -39.99 -167.12  128.35  161.06   37.04 -105.54  -85.56  -43.22

DOCKED: MODEL       47
DOCKED: USER    Run = 47
DOCKED: USER    DPF = ligand_dock.biased.dpf
DOCKED: USER  
DOCKED: USER    Estimated Free Energy of Binding    =   -9.68 kcal/mol  [=(1)+(2)+(3)-(4)]
DOCKED: USER    Estimated Inhibition Constant, Ki   =   80.85 nM (nanomolar)  [Temperature = 298.15 K]
DOCKED: USER    
DOCKED: USER    (1) Final Intermolecular Energy     =  -12.36 kcal/mol
DOCKED: USER        vdW + Hbond + desolv Energy     =  -12.36 kcal/mol
DOCKED: USER        Electrostatic Energy            =   +0.00 kcal/mol
DOCKED: USER    (2) Final Total Internal Energy     =   -1.30 kcal/mol
DOCKED: USER    (3) Torsional Free Energy           =   +2.68 kcal/mol
DOCKED: USER    (4) Unbound System's Energy  [=(2)] =   -1.30 kcal/mol
DOCKED: USER    
DOCKED: USER    
DOCKED: USER    NEWDPF move ligand.pdbqt
DOCKED: USER    NEWDPF about -0.121000 -0.193000 0.463000
DOCKED: USER    NEWDPF tran0 24.213463 -17.518973 -1.857446
DOCKED: USER    NEWDPF quaternion0 0.729735 -0.563191 -0.235011 -0.308338
DOCKED: USER    NEWDPF axisangle0 0.767111 -0.592037 -0.247048 -144.081745
DOCKED: USER    NEWDPF quat0 0.767111 -0.592037 -0.247048 -144.081745
DOCKED: USER    NEWDPF dihe0 27.77 -39.99 -167.12 128.35 161.06 37.04 -105.54 -85.56 -43.22 
DOCKED: USER  keepresnum = 1 
DOCKED: USER  
DOCKED: REMARK  Name = 
DOCKED: REMARK  9 active torsions:
DOCKED: REMARK  status: ('A' for Active; 'I' for Inactive)
DOCKED: REMARK    1  A    between atoms: C_2  and  C_5
DOCKED: REMARK    2  A    between atoms: N_3  and  O_4
DOCKED: REMARK    3  A    between atoms: C_5  and  C_6
DOCKED: REMARK    4  A    between atoms: C_6  and  C_7
DOCKED: REMARK    5  A    between atoms: C_7  and  C_8
DOCKED: REMARK    6  A    between atoms: C_8  and  C_9
DOCKED: REMARK    7  A    between atoms: C_9  and  C_10
DOCKED: REMARK    8  A    between atoms: C_10  and  C_11
DOCKED: REMARK    9  A    between atoms: N_12  and  C_13
DOCKED: REMARK                            x       y       z     vdW  Elec       q    Type
DOCKED: REMARK                         _______ _______ _______ _____ _____    ______ ____
DOCKED: USER                              x       y       z     vdW  Elec       q    Type
DOCKED: USER                           _______ _______ _______ _____ _____    ______ ____
DOCKED: ROOT
DOCKED: ATOM      1  C   UNL     1      26.944 -17.434  -0.169 -0.51 -0.00    +0.000 C 
DOCKED: ENDROOT
DOCKED: BRANCH   1   2
DOCKED: ATOM      2  C   UNL     1      25.671 -18.255   0.089 -0.64 -0.00    +0.000 C 
DOCKED: BRANCH   2   3
DOCKED: ATOM      3  C   UNL     1      24.656 -18.068  -1.048 -0.74 -0.00    +0.000 C 
DOCKED: BRANCH   3   4
DOCKED: ATOM      4  C   UNL     1      23.198 -18.181  -0.568 -0.82 -0.00    +0.000 C 
DOCKED: BRANCH   4   5
DOCKED: ATOM      5  C   UNL     1      22.309 -19.081  -1.443 -0.70 -0.00    +0.000 C 
DOCKED: BRANCH   5   7
DOCKED: ATOM      6  O   UNL     1      20.390 -17.857  -0.714 -2.25 -0.00    +0.000 OA
DOCKED: ATOM      7  C   UNL     1      20.858 -18.970  -1.076 -0.87 -0.00    +0.000 C 
DOCKED: ATOM      8  N   UNL     1      20.012 -20.123  -1.110 -0.71 -0.00    +0.000 N 
DOCKED: ATOM      9  H   UNL     1      20.379 -20.989  -1.399 -0.47 -0.00    +0.000 HD
DOCKED: BRANCH   8  10
DOCKED: ATOM     10  O   UNL     1      18.710 -20.032  -0.748 -0.86 -0.00    +0.000 OA
DOCKED: ATOM     11  H   UNL     1      18.389 -19.133  -0.915 -0.58 -0.00    +0.000 HD
DOCKED: ENDBRANCH   8  10
DOCKED: ENDBRANCH   5   7
DOCKED: ENDBRANCH   4   5
DOCKED: ENDBRANCH   3   4
DOCKED: ENDBRANCH   2   3
DOCKED: ENDBRANCH   1   2
DOCKED: BRANCH   1  12
DOCKED: ATOM     12  C   UNL     1      26.719 -15.932   0.050 -0.29 -0.00    +0.000 C 
DOCKED: BRANCH  12  13
DOCKED: ATOM     13  C   UNL     1      26.835 -15.167  -1.238 -0.34 -0.00    +0.000 C 
DOCKED: ATOM     14  N   UNL     1      26.947 -15.871  -2.485 -0.34 -0.00    +0.000 N 
DOCKED: ATOM     15  O   UNL     1      26.842 -13.907  -1.210 -0.26 -0.00    +0.000 OA
DOCKED: ATOM     16  H   UNL     1      26.634 -16.803  -2.518 -0.02 -0.00    +0.000 HD
DOCKED: BRANCH  14  17
DOCKED: ATOM     17  C   UNL     1      27.488 -15.298  -3.688 -0.32 -0.00    +0.000 A 
DOCKED: ATOM     18  C   UNL     1      28.603 -14.452  -3.610 -0.15 -0.00    +0.000 A 
DOCKED: ATOM     19  C   UNL     1      29.117 -13.864  -4.767 -0.14 -0.00    +0.000 A 
DOCKED: ATOM     20  C   UNL     1      28.503 -14.114  -5.993 -0.31 -0.00    +0.000 A 
DOCKED: ATOM     21  N   UNL     1      27.407 -14.916  -6.054 -0.69 +0.00    +0.000 NA
DOCKED: ATOM     22  C   UNL     1      26.888 -15.505  -4.943 -0.34 +0.00    +0.000 A 
DOCKED: ENDBRANCH  14  17
DOCKED: ENDBRANCH  12  13
DOCKED: ENDBRANCH   1  12
DOCKED: TORSDOF 9
DOCKED: TER
DOCKED: ENDMDL
________________________________________________________________________________


	BEGINNING GENETIC ALGORITHM DOCKING 48 of 100
Run: 48 Seed: 659802925 923279971 [ Run 48 of 100 GA/GALS ]
Beginning LAMARCKIAN GENETIC ALGORITHM (LGA), with a maximum of 2500000 energy evaluations.

Final-Value: -14.157


	FINAL GENETIC ALGORITHM DOCKED STATE
	_______________________________________________


Detailed state:  trans 23.895 -17.178 -4.095 quatxyzw -0.811372 -0.528031 -0.191300 -0.162057 center -0.121 -0.193 0.463 ntor 9 -1.1226 2.0420 140.5829 31.7749 -129.1099 64.9254 72.2066 -147.8988 -107.4027
State:	 23.895 -17.178  -4.095  -0.822 -0.535 -0.194 -161.347     -1.12    2.04  140.58   31.77 -129.11   64.93   72.21 -147.90 -107.40

DOCKED: MODEL       48
DOCKED: USER    Run = 48
DOCKED: USER    DPF = ligand_dock.biased.dpf
DOCKED: USER  
DOCKED: USER    Estimated Free Energy of Binding    =  -10.23 kcal/mol  [=(1)+(2)+(3)-(4)]
DOCKED: USER    Estimated Inhibition Constant, Ki   =   31.69 nM (nanomolar)  [Temperature = 298.15 K]
DOCKED: USER    
DOCKED: USER    (1) Final Intermolecular Energy     =  -12.92 kcal/mol
DOCKED: USER        vdW + Hbond + desolv Energy     =  -12.92 kcal/mol
DOCKED: USER        Electrostatic Energy            =   +0.00 kcal/mol
DOCKED: USER    (2) Final Total Internal Energy     =   -1.24 kcal/mol
DOCKED: USER    (3) Torsional Free Energy           =   +2.68 kcal/mol
DOCKED: USER    (4) Unbound System's Energy  [=(2)] =   -1.24 kcal/mol
DOCKED: USER    
DOCKED: USER    
DOCKED: USER    NEWDPF move ligand.pdbqt
DOCKED: USER    NEWDPF about -0.121000 -0.193000 0.463000
DOCKED: USER    NEWDPF tran0 23.894559 -17.177661 -4.095272
DOCKED: USER    NEWDPF quaternion0 -0.811372 -0.528031 -0.191300 -0.162057
DOCKED: USER    NEWDPF axisangle0 -0.822241 -0.535105 -0.193863 -161.347418
DOCKED: USER    NEWDPF quat0 -0.822241 -0.535105 -0.193863 -161.347418
DOCKED: USER    NEWDPF dihe0 -1.12 2.04 140.58 31.77 -129.11 64.93 72.21 -147.90 -107.40 
DOCKED: USER  keepresnum = 1 
DOCKED: USER  
DOCKED: REMARK  Name = 
DOCKED: REMARK  9 active torsions:
DOCKED: REMARK  status: ('A' for Active; 'I' for Inactive)
DOCKED: REMARK    1  A    between atoms: C_2  and  C_5
DOCKED: REMARK    2  A    between atoms: N_3  and  O_4
DOCKED: REMARK    3  A    between atoms: C_5  and  C_6
DOCKED: REMARK    4  A    between atoms: C_6  and  C_7
DOCKED: REMARK    5  A    between atoms: C_7  and  C_8
DOCKED: REMARK    6  A    between atoms: C_8  and  C_9
DOCKED: REMARK    7  A    between atoms: C_9  and  C_10
DOCKED: REMARK    8  A    between atoms: C_10  and  C_11
DOCKED: REMARK    9  A    between atoms: N_12  and  C_13
DOCKED: REMARK                            x       y       z     vdW  Elec       q    Type
DOCKED: REMARK                         _______ _______ _______ _____ _____    ______ ____
DOCKED: USER                              x       y       z     vdW  Elec       q    Type
DOCKED: USER                           _______ _______ _______ _____ _____    ______ ____
DOCKED: ROOT
DOCKED: ATOM      1  C   UNL     1      23.091 -17.860  -1.061 -0.78 -0.00    +0.000 C 
DOCKED: ENDROOT
DOCKED: BRANCH   1   2
DOCKED: ATOM      2  C   UNL     1      24.477 -17.555  -1.651 -0.69 -0.00    +0.000 C 
DOCKED: BRANCH   2   3
DOCKED: ATOM      3  C   UNL     1      25.569 -17.669  -0.579 -0.66 -0.00    +0.000 C 
DOCKED: BRANCH   3   4
DOCKED: ATOM      4  C   UNL     1      26.357 -16.360  -0.390 -0.45 -0.00    +0.000 C 
DOCKED: BRANCH   4   5
DOCKED: ATOM      5  C   UNL     1      27.146 -15.909  -1.631 -0.37 -0.00    +0.000 C 
DOCKED: BRANCH   5   7
DOCKED: ATOM      6  O   UNL     1      26.264 -13.746  -2.137 -0.29 -0.00    +0.000 OA
DOCKED: ATOM      7  C   UNL     1      26.362 -14.954  -2.483 -0.40 -0.00    +0.000 C 
DOCKED: ATOM      8  N   UNL     1      25.707 -15.412  -3.670 -0.54 -0.00    +0.000 N 
DOCKED: ATOM      9  H   UNL     1      25.791 -16.354  -3.940 -0.05 -0.00    +0.000 HD
DOCKED: BRANCH   8  10
DOCKED: ATOM     10  O   UNL     1      24.972 -14.559  -4.423 -1.01 -0.00    +0.000 OA
DOCKED: ATOM     11  H   UNL     1      24.976 -13.680  -4.014 -0.07 -0.00    +0.000 HD
DOCKED: ENDBRANCH   8  10
DOCKED: ENDBRANCH   5   7
DOCKED: ENDBRANCH   4   5
DOCKED: ENDBRANCH   3   4
DOCKED: ENDBRANCH   2   3
DOCKED: ENDBRANCH   1   2
DOCKED: BRANCH   1  12
DOCKED: ATOM     12  C   UNL     1      22.537 -19.206  -1.549 -0.58 -0.00    +0.000 C 
DOCKED: BRANCH  12  13
DOCKED: ATOM     13  C   UNL     1      21.159 -19.458  -1.010 -0.81 -0.00    +0.000 C 
DOCKED: ATOM     14  N   UNL     1      20.918 -19.397   0.405 -0.69 -0.00    +0.000 N 
DOCKED: ATOM     15  O   UNL     1      20.222 -19.732  -1.808 -1.84 -0.00    +0.000 OA
DOCKED: ATOM     16  H   UNL     1      21.555 -18.893   0.960 -0.21 -0.00    +0.000 HD
DOCKED: BRANCH  14  17
DOCKED: ATOM     17  C   UNL     1      19.803 -20.026   1.060 -0.67 -0.00    +0.000 A 
DOCKED: ATOM     18  C   UNL     1      18.734 -20.513   0.294 -0.63 -0.00    +0.000 A 
DOCKED: ATOM     19  C   UNL     1      17.631 -21.096   0.919 -0.56 -0.00    +0.000 A 
DOCKED: ATOM     20  C   UNL     1      17.598 -21.176   2.312 -0.63 -0.00    +0.000 A 
DOCKED: ATOM     21  N   UNL     1      18.628 -20.680   3.047 -0.52 -0.00    +0.000 NA
DOCKED: ATOM     22  C   UNL     1      19.715 -20.110   2.462 -0.46 -0.00    +0.000 A 
DOCKED: ENDBRANCH  14  17
DOCKED: ENDBRANCH  12  13
DOCKED: ENDBRANCH   1  12
DOCKED: TORSDOF 9
DOCKED: TER
DOCKED: ENDMDL
________________________________________________________________________________


	BEGINNING GENETIC ALGORITHM DOCKING 49 of 100
Run: 49 Seed: 541536806 1447912336 [ Run 49 of 100 GA/GALS ]
Beginning LAMARCKIAN GENETIC ALGORITHM (LGA), with a maximum of 2500000 energy evaluations.

Final-Value: -15.589


	FINAL GENETIC ALGORITHM DOCKED STATE
	_______________________________________________


Detailed state:  trans 24.656 -15.420 -0.049 quatxyzw -0.535446 -0.108789 -0.332545 -0.768685 center -0.121 -0.193 0.463 ntor 9 -166.9827 -129.0482 14.2699 -177.9137 -3.8233 -49.6241 -178.9091 -130.1000 -75.4233
State:	 24.656 -15.420  -0.049  -0.837 -0.170 -0.520 -79.528   -166.98 -129.05   14.27 -177.91   -3.82  -49.62 -178.91 -130.10  -75.42

DOCKED: MODEL       49
DOCKED: USER    Run = 49
DOCKED: USER    DPF = ligand_dock.biased.dpf
DOCKED: USER  
DOCKED: USER    Estimated Free Energy of Binding    =  -11.98 kcal/mol  [=(1)+(2)+(3)-(4)]
DOCKED: USER    Estimated Inhibition Constant, Ki   =    1.65 nM (nanomolar)  [Temperature = 298.15 K]
DOCKED: USER    
DOCKED: USER    (1) Final Intermolecular Energy     =  -14.67 kcal/mol
DOCKED: USER        vdW + Hbond + desolv Energy     =  -14.67 kcal/mol
DOCKED: USER        Electrostatic Energy            =   +0.00 kcal/mol
DOCKED: USER    (2) Final Total Internal Energy     =   -0.92 kcal/mol
DOCKED: USER    (3) Torsional Free Energy           =   +2.68 kcal/mol
DOCKED: USER    (4) Unbound System's Energy  [=(2)] =   -0.92 kcal/mol
DOCKED: USER    
DOCKED: USER    
DOCKED: USER    NEWDPF move ligand.pdbqt
DOCKED: USER    NEWDPF about -0.121000 -0.193000 0.463000
DOCKED: USER    NEWDPF tran0 24.655924 -15.420175 -0.049468
DOCKED: USER    NEWDPF quaternion0 -0.535446 -0.108789 -0.332545 -0.768685
DOCKED: USER    NEWDPF axisangle0 -0.837121 -0.170082 -0.519905 -79.528128
DOCKED: USER    NEWDPF quat0 -0.837121 -0.170082 -0.519905 -79.528128
DOCKED: USER    NEWDPF dihe0 -166.98 -129.05 14.27 -177.91 -3.82 -49.62 -178.91 -130.10 -75.42 
DOCKED: USER  keepresnum = 1 
DOCKED: USER  
DOCKED: REMARK  Name = 
DOCKED: REMARK  9 active torsions:
DOCKED: REMARK  status: ('A' for Active; 'I' for Inactive)
DOCKED: REMARK    1  A    between atoms: C_2  and  C_5
DOCKED: REMARK    2  A    between atoms: N_3  and  O_4
DOCKED: REMARK    3  A    between atoms: C_5  and  C_6
DOCKED: REMARK    4  A    between atoms: C_6  and  C_7
DOCKED: REMARK    5  A    between atoms: C_7  and  C_8
DOCKED: REMARK    6  A    between atoms: C_8  and  C_9
DOCKED: REMARK    7  A    between atoms: C_9  and  C_10
DOCKED: REMARK    8  A    between atoms: C_10  and  C_11
DOCKED: REMARK    9  A    between atoms: N_12  and  C_13
DOCKED: REMARK                            x       y       z     vdW  Elec       q    Type
DOCKED: REMARK                         _______ _______ _______ _____ _____    ______ ____
DOCKED: USER                              x       y       z     vdW  Elec       q    Type
DOCKED: USER                           _______ _______ _______ _____ _____    ______ ____
DOCKED: ROOT
DOCKED: ATOM      1  C   UNL     1      24.131 -18.561  -0.472 -0.75 -0.00    +0.000 C 
DOCKED: ENDROOT
DOCKED: BRANCH   1   2
DOCKED: ATOM      2  C   UNL     1      25.394 -17.740  -0.777 -0.68 -0.00    +0.000 C 
DOCKED: BRANCH   2   3
DOCKED: ATOM      3  C   UNL     1      25.153 -16.771  -1.944 -0.62 -0.00    +0.000 C 
DOCKED: BRANCH   3   4
DOCKED: ATOM      4  C   UNL     1      25.460 -15.308  -1.576 -0.38 -0.00    +0.000 C 
DOCKED: BRANCH   4   5
DOCKED: ATOM      5  C   UNL     1      26.925 -15.044  -1.190 -0.33 -0.00    +0.000 C 
DOCKED: BRANCH   5   7
DOCKED: ATOM      6  O   UNL     1      26.380 -13.613   0.645 -0.38 -0.00    +0.000 OA
DOCKED: ATOM      7  C   UNL     1      27.060 -14.592   0.235 -0.31 -0.00    +0.000 C 
DOCKED: ATOM      8  N   UNL     1      27.972 -15.248   1.121 -0.21 -0.00    +0.000 N 
DOCKED: ATOM      9  H   UNL     1      28.496 -16.016   0.799 -0.62 -0.00    +0.000 HD
DOCKED: BRANCH   8  10
DOCKED: ATOM     10  O   UNL     1      28.119 -14.823   2.398 -0.32 -0.00    +0.000 OA
DOCKED: ATOM     11  H   UNL     1      28.906 -15.233   2.787 -1.95 -0.00    +0.000 HD
DOCKED: ENDBRANCH   8  10
DOCKED: ENDBRANCH   5   7
DOCKED: ENDBRANCH   4   5
DOCKED: ENDBRANCH   3   4
DOCKED: ENDBRANCH   2   3
DOCKED: ENDBRANCH   1   2
DOCKED: BRANCH   1  12
DOCKED: ATOM     12  C   UNL     1      22.968 -18.203  -1.407 -0.70 -0.00    +0.000 C 
DOCKED: BRANCH  12  13
DOCKED: ATOM     13  C   UNL     1      21.647 -18.294  -0.698 -0.85 -0.00    +0.000 C 
DOCKED: ATOM     14  N   UNL     1      21.428 -19.319   0.285 -0.61 -0.00    +0.000 N 
DOCKED: ATOM     15  O   UNL     1      20.736 -17.470  -0.980 -2.05 -0.00    +0.000 OA
DOCKED: ATOM     16  H   UNL     1      22.216 -19.733   0.703 -0.43 -0.00    +0.000 HD
DOCKED: BRANCH  14  17
DOCKED: ATOM     17  C   UNL     1      20.127 -19.777   0.694 -0.67 -0.00    +0.000 A 
DOCKED: ATOM     18  C   UNL     1      19.883 -20.045   2.048 -0.53 -0.00    +0.000 A 
DOCKED: ATOM     19  C   UNL     1      18.635 -20.520   2.454 -0.53 -0.00    +0.000 A 
DOCKED: ATOM     20  C   UNL     1      17.643 -20.740   1.499 -0.48 -0.00    +0.000 A 
DOCKED: ATOM     21  N   UNL     1      17.898 -20.500   0.186 -0.60 -0.00    +0.000 NA
DOCKED: ATOM     22  C   UNL     1      19.103 -20.033  -0.236 -0.67 -0.00    +0.000 A 
DOCKED: ENDBRANCH  14  17
DOCKED: ENDBRANCH  12  13
DOCKED: ENDBRANCH   1  12
DOCKED: TORSDOF 9
DOCKED: TER
DOCKED: ENDMDL
________________________________________________________________________________


	BEGINNING GENETIC ALGORITHM DOCKING 50 of 100
Run: 50 Seed: 2130752714 1083572885 [ Run 50 of 100 GA/GALS ]
Beginning LAMARCKIAN GENETIC ALGORITHM (LGA), with a maximum of 2500000 energy evaluations.

Final-Value: -13.541


	FINAL GENETIC ALGORITHM DOCKED STATE
	_______________________________________________


Detailed state:  trans 27.210 -18.538 -2.161 quatxyzw -0.374903 0.811985 -0.422805 0.146165 center -0.121 -0.193 0.463 ntor 9 -167.0333 20.1061 -15.4496 -173.1521 -125.1174 21.5900 -10.0405 -45.4077 -161.2695
State:	 27.210 -18.538  -2.161  -0.379  0.821 -0.427 163.191   -167.03   20.11  -15.45 -173.15 -125.12   21.59  -10.04  -45.41 -161.27

DOCKED: MODEL       50
DOCKED: USER    Run = 50
DOCKED: USER    DPF = ligand_dock.biased.dpf
DOCKED: USER  
DOCKED: USER    Estimated Free Energy of Binding    =  -10.14 kcal/mol  [=(1)+(2)+(3)-(4)]
DOCKED: USER    Estimated Inhibition Constant, Ki   =   36.77 nM (nanomolar)  [Temperature = 298.15 K]
DOCKED: USER    
DOCKED: USER    (1) Final Intermolecular Energy     =  -12.83 kcal/mol
DOCKED: USER        vdW + Hbond + desolv Energy     =  -12.83 kcal/mol
DOCKED: USER        Electrostatic Energy            =   +0.00 kcal/mol
DOCKED: USER    (2) Final Total Internal Energy     =   -0.71 kcal/mol
DOCKED: USER    (3) Torsional Free Energy           =   +2.68 kcal/mol
DOCKED: USER    (4) Unbound System's Energy  [=(2)] =   -0.71 kcal/mol
DOCKED: USER    
DOCKED: USER    
DOCKED: USER    NEWDPF move ligand.pdbqt
DOCKED: USER    NEWDPF about -0.121000 -0.193000 0.463000
DOCKED: USER    NEWDPF tran0 27.210269 -18.538477 -2.161162
DOCKED: USER    NEWDPF quaternion0 -0.374903 0.811985 -0.422805 0.146165
DOCKED: USER    NEWDPF axisangle0 -0.378973 0.820800 -0.427395 163.190562
DOCKED: USER    NEWDPF quat0 -0.378973 0.820800 -0.427395 163.190562
DOCKED: USER    NEWDPF dihe0 -167.03 20.11 -15.45 -173.15 -125.12 21.59 -10.04 -45.41 -161.27 
DOCKED: USER  keepresnum = 1 
DOCKED: USER  
DOCKED: REMARK  Name = 
DOCKED: REMARK  9 active torsions:
DOCKED: REMARK  status: ('A' for Active; 'I' for Inactive)
DOCKED: REMARK    1  A    between atoms: C_2  and  C_5
DOCKED: REMARK    2  A    between atoms: N_3  and  O_4
DOCKED: REMARK    3  A    between atoms: C_5  and  C_6
DOCKED: REMARK    4  A    between atoms: C_6  and  C_7
DOCKED: REMARK    5  A    between atoms: C_7  and  C_8
DOCKED: REMARK    6  A    between atoms: C_8  and  C_9
DOCKED: REMARK    7  A    between atoms: C_9  and  C_10
DOCKED: REMARK    8  A    between atoms: C_10  and  C_11
DOCKED: REMARK    9  A    between atoms: N_12  and  C_13
DOCKED: REMARK                            x       y       z     vdW  Elec       q    Type
DOCKED: REMARK                         _______ _______ _______ _____ _____    ______ ____
DOCKED: USER                              x       y       z     vdW  Elec       q    Type
DOCKED: USER                           _______ _______ _______ _____ _____    ______ ____
DOCKED: ROOT
DOCKED: ATOM      1  C   UNL     1      27.025 -16.624   0.411 -0.21 -0.00    +0.000 C 
DOCKED: ENDROOT
DOCKED: BRANCH   1   2
DOCKED: ATOM      2  C   UNL     1      25.904 -17.099  -0.525 -0.58 -0.00    +0.000 C 
DOCKED: BRANCH   2   3
DOCKED: ATOM      3  C   UNL     1      25.121 -18.263   0.100 -0.62 -0.00    +0.000 C 
DOCKED: BRANCH   3   4
DOCKED: ATOM      4  C   UNL     1      24.256 -19.017  -0.926 -0.54 -0.00    +0.000 C 
DOCKED: BRANCH   4   5
DOCKED: ATOM      5  C   UNL     1      23.209 -18.145  -1.638 -0.55 -0.00    +0.000 C 
DOCKED: BRANCH   5   7
DOCKED: ATOM      6  O   UNL     1      21.229 -17.855  -0.331 -1.78 -0.00    +0.000 OA
DOCKED: ATOM      7  C   UNL     1      21.807 -18.508  -1.241 -0.59 -0.00    +0.000 C 
DOCKED: ATOM      8  N   UNL     1      21.135 -19.603  -1.870 -0.57 -0.00    +0.000 N 
DOCKED: ATOM      9  H   UNL     1      21.587 -20.106  -2.585 -0.61 -0.00    +0.000 HD
DOCKED: BRANCH   8  10
DOCKED: ATOM     10  O   UNL     1      19.883 -19.952  -1.491 -1.64 -0.00    +0.000 OA
DOCKED: ATOM     11  H   UNL     1      19.662 -20.819  -1.863 -0.61 -0.00    +0.000 HD
DOCKED: ENDBRANCH   8  10
DOCKED: ENDBRANCH   5   7
DOCKED: ENDBRANCH   4   5
DOCKED: ENDBRANCH   3   4
DOCKED: ENDBRANCH   2   3
DOCKED: ENDBRANCH   1   2
DOCKED: BRANCH   1  12
DOCKED: ATOM     12  C   UNL     1      27.991 -15.656  -0.286 -0.30 -0.00    +0.000 C 
DOCKED: BRANCH  12  13
DOCKED: ATOM     13  C   UNL     1      28.180 -14.399   0.515 -0.23 -0.00    +0.000 C 
DOCKED: ATOM     14  N   UNL     1      28.469 -14.478   1.920 -0.25 -0.00    +0.000 N 
DOCKED: ATOM     15  O   UNL     1      28.074 -13.280  -0.056 -0.14 -0.00    +0.000 OA
DOCKED: ATOM     16  H   UNL     1      28.846 -15.318   2.267 -1.82 -0.00    +0.000 HD
DOCKED: BRANCH  14  17
DOCKED: ATOM     17  C   UNL     1      28.241 -13.405   2.850 -0.27 -0.00    +0.000 A 
DOCKED: ATOM     18  C   UNL     1      28.762 -13.493   4.149 -0.33 -0.00    +0.000 A 
DOCKED: ATOM     19  C   UNL     1      28.520 -12.474   5.071 -0.32 -0.00    +0.000 A 
DOCKED: ATOM     20  C   UNL     1      27.744 -11.378   4.693 -0.32 +0.00    +0.000 A 
DOCKED: ATOM     21  N   UNL     1      27.223 -11.315   3.439 -0.28 +0.00    +0.000 NA
DOCKED: ATOM     22  C   UNL     1      27.446 -12.292   2.520 -0.26 -0.00    +0.000 A 
DOCKED: ENDBRANCH  14  17
DOCKED: ENDBRANCH  12  13
DOCKED: ENDBRANCH   1  12
DOCKED: TORSDOF 9
DOCKED: TER
DOCKED: ENDMDL
________________________________________________________________________________


	BEGINNING GENETIC ALGORITHM DOCKING 51 of 100
Run: 51 Seed: 1752326653 961889780 [ Run 51 of 100 GA/GALS ]
Beginning LAMARCKIAN GENETIC ALGORITHM (LGA), with a maximum of 2500000 energy evaluations.

Final-Value: -14.496


	FINAL GENETIC ALGORITHM DOCKED STATE
	_______________________________________________


Detailed state:  trans 25.713 -16.458 1.037 quatxyzw 0.043004 0.023756 -0.881487 -0.469645 center -0.121 -0.193 0.463 ntor 9 -5.6176 -163.5135 -179.1925 -178.8551 109.4457 162.3551 -26.1395 164.9239 -169.6783
State:	 25.713 -16.458   1.037   0.049  0.027 -0.998 -123.977     -5.62 -163.51 -179.19 -178.86  109.45  162.36  -26.14  164.92 -169.68

DOCKED: MODEL       51
DOCKED: USER    Run = 51
DOCKED: USER    DPF = ligand_dock.biased.dpf
DOCKED: USER  
DOCKED: USER    Estimated Free Energy of Binding    =  -10.54 kcal/mol  [=(1)+(2)+(3)-(4)]
DOCKED: USER    Estimated Inhibition Constant, Ki   =   18.76 nM (nanomolar)  [Temperature = 298.15 K]
DOCKED: USER    
DOCKED: USER    (1) Final Intermolecular Energy     =  -13.23 kcal/mol
DOCKED: USER        vdW + Hbond + desolv Energy     =  -13.23 kcal/mol
DOCKED: USER        Electrostatic Energy            =   +0.00 kcal/mol
DOCKED: USER    (2) Final Total Internal Energy     =   -1.27 kcal/mol
DOCKED: USER    (3) Torsional Free Energy           =   +2.68 kcal/mol
DOCKED: USER    (4) Unbound System's Energy  [=(2)] =   -1.27 kcal/mol
DOCKED: USER    
DOCKED: USER    
DOCKED: USER    NEWDPF move ligand.pdbqt
DOCKED: USER    NEWDPF about -0.121000 -0.193000 0.463000
DOCKED: USER    NEWDPF tran0 25.713357 -16.457906 1.036510
DOCKED: USER    NEWDPF quaternion0 0.043004 0.023756 -0.881487 -0.469645
DOCKED: USER    NEWDPF axisangle0 0.048710 0.026908 -0.998450 -123.977461
DOCKED: USER    NEWDPF quat0 0.048710 0.026908 -0.998450 -123.977461
DOCKED: USER    NEWDPF dihe0 -5.62 -163.51 -179.19 -178.86 109.45 162.36 -26.14 164.92 -169.68 
DOCKED: USER  keepresnum = 1 
DOCKED: USER  
DOCKED: REMARK  Name = 
DOCKED: REMARK  9 active torsions:
DOCKED: REMARK  status: ('A' for Active; 'I' for Inactive)
DOCKED: REMARK    1  A    between atoms: C_2  and  C_5
DOCKED: REMARK    2  A    between atoms: N_3  and  O_4
DOCKED: REMARK    3  A    between atoms: C_5  and  C_6
DOCKED: REMARK    4  A    between atoms: C_6  and  C_7
DOCKED: REMARK    5  A    between atoms: C_7  and  C_8
DOCKED: REMARK    6  A    between atoms: C_8  and  C_9
DOCKED: REMARK    7  A    between atoms: C_9  and  C_10
DOCKED: REMARK    8  A    between atoms: C_10  and  C_11
DOCKED: REMARK    9  A    between atoms: N_12  and  C_13
DOCKED: REMARK                            x       y       z     vdW  Elec       q    Type
DOCKED: REMARK                         _______ _______ _______ _____ _____    ______ ____
DOCKED: USER                              x       y       z     vdW  Elec       q    Type
DOCKED: USER                           _______ _______ _______ _____ _____    ______ ____
DOCKED: ROOT
DOCKED: ATOM      1  C   UNL     1      24.988 -16.352  -2.091 -0.57 -0.00    +0.000 C 
DOCKED: ENDROOT
DOCKED: BRANCH   1   2
DOCKED: ATOM      2  C   UNL     1      25.669 -17.474  -1.292 -0.61 -0.00    +0.000 C 
DOCKED: BRANCH   2   3
DOCKED: ATOM      3  C   UNL     1      24.629 -18.373  -0.609 -0.74 -0.00    +0.000 C 
DOCKED: BRANCH   3   4
DOCKED: ATOM      4  C   UNL     1      23.282 -17.663  -0.386 -0.75 -0.00    +0.000 C 
DOCKED: BRANCH   4   5
DOCKED: ATOM      5  C   UNL     1      22.178 -18.562   0.195 -0.72 -0.00    +0.000 C 
DOCKED: BRANCH   5   7
DOCKED: ATOM      6  O   UNL     1      20.080 -17.860  -0.710 -2.04 +0.00    +0.000 OA
DOCKED: ATOM      7  C   UNL     1      21.014 -18.705  -0.743 -0.86 -0.00    +0.000 C 
DOCKED: ATOM      8  N   UNL     1      20.949 -19.806  -1.654 -0.63 -0.00    +0.000 N 
DOCKED: ATOM      9  H   UNL     1      21.684 -20.460  -1.682 -0.36 -0.00    +0.000 HD
DOCKED: BRANCH   8  10
DOCKED: ATOM     10  O   UNL     1      19.886 -19.955  -2.480 -1.69 -0.00    +0.000 OA
DOCKED: ATOM     11  H   UNL     1      19.217 -19.286  -2.269 -0.42 -0.00    +0.000 HD
DOCKED: ENDBRANCH   8  10
DOCKED: ENDBRANCH   5   7
DOCKED: ENDBRANCH   4   5
DOCKED: ENDBRANCH   3   4
DOCKED: ENDBRANCH   2   3
DOCKED: ENDBRANCH   1   2
DOCKED: BRANCH   1  12
DOCKED: ATOM     12  C   UNL     1      25.877 -15.108  -2.217 -0.45 -0.00    +0.000 C 
DOCKED: BRANCH  12  13
DOCKED: ATOM     13  C   UNL     1      26.164 -14.783  -3.655 -0.51 -0.00    +0.000 C 
DOCKED: ATOM     14  N   UNL     1      27.427 -15.143  -4.237 -0.36 -0.00    +0.000 N 
DOCKED: ATOM     15  O   UNL     1      25.290 -14.186  -4.340 -0.86 -0.00    +0.000 OA
DOCKED: ATOM     16  H   UNL     1      27.947 -15.857  -3.803 -0.01 -0.00    +0.000 HD
DOCKED: BRANCH  14  17
DOCKED: ATOM     17  C   UNL     1      27.977 -14.526  -5.413 -0.35 -0.00    +0.000 A 
DOCKED: ATOM     18  C   UNL     1      27.626 -13.206  -5.731 -0.20 -0.00    +0.000 A 
DOCKED: ATOM     19  C   UNL     1      28.128 -12.606  -6.887 -0.20 -0.00    +0.000 A 
DOCKED: ATOM     20  C   UNL     1      28.968 -13.337  -7.727 -0.25 -0.00    +0.000 A 
DOCKED: ATOM     21  N   UNL     1      29.283 -14.624  -7.422 -0.29 -0.00    +0.000 NA
DOCKED: ATOM     22  C   UNL     1      28.811 -15.230  -6.301 -0.34 -0.00    +0.000 A 
DOCKED: ENDBRANCH  14  17
DOCKED: ENDBRANCH  12  13
DOCKED: ENDBRANCH   1  12
DOCKED: TORSDOF 9
DOCKED: TER
DOCKED: ENDMDL
________________________________________________________________________________


	BEGINNING GENETIC ALGORITHM DOCKING 52 of 100
Run: 52 Seed: 444274210 1853985342 [ Run 52 of 100 GA/GALS ]
Beginning LAMARCKIAN GENETIC ALGORITHM (LGA), with a maximum of 2500000 energy evaluations.

Final-Value: -15.058


	FINAL GENETIC ALGORITHM DOCKED STATE
	_______________________________________________


Detailed state:  trans 24.780 -18.196 -0.365 quatxyzw 0.536368 0.412328 -0.729993 -0.096983 center -0.121 -0.193 0.463 ntor 9 11.8259 166.7107 -76.9968 45.1782 34.9615 69.2143 -45.3964 90.5076 -119.0466
State:	 24.780 -18.196  -0.365   0.539  0.414 -0.733 -168.869     11.83  166.71  -77.00   45.18   34.96   69.21  -45.40   90.51 -119.05

DOCKED: MODEL       52
DOCKED: USER    Run = 52
DOCKED: USER    DPF = ligand_dock.biased.dpf
DOCKED: USER  
DOCKED: USER    Estimated Free Energy of Binding    =  -11.16 kcal/mol  [=(1)+(2)+(3)-(4)]
DOCKED: USER    Estimated Inhibition Constant, Ki   =    6.64 nM (nanomolar)  [Temperature = 298.15 K]
DOCKED: USER    
DOCKED: USER    (1) Final Intermolecular Energy     =  -13.84 kcal/mol
DOCKED: USER        vdW + Hbond + desolv Energy     =  -13.84 kcal/mol
DOCKED: USER        Electrostatic Energy            =   +0.00 kcal/mol
DOCKED: USER    (2) Final Total Internal Energy     =   -1.22 kcal/mol
DOCKED: USER    (3) Torsional Free Energy           =   +2.68 kcal/mol
DOCKED: USER    (4) Unbound System's Energy  [=(2)] =   -1.22 kcal/mol
DOCKED: USER    
DOCKED: USER    
DOCKED: USER    NEWDPF move ligand.pdbqt
DOCKED: USER    NEWDPF about -0.121000 -0.193000 0.463000
DOCKED: USER    NEWDPF tran0 24.780143 -18.196241 -0.365320
DOCKED: USER    NEWDPF quaternion0 0.536368 0.412328 -0.729993 -0.096983
DOCKED: USER    NEWDPF axisangle0 0.538908 0.414281 -0.733450 -168.869090
DOCKED: USER    NEWDPF quat0 0.538908 0.414281 -0.733450 -168.869090
DOCKED: USER    NEWDPF dihe0 11.83 166.71 -77.00 45.18 34.96 69.21 -45.40 90.51 -119.05 
DOCKED: USER  keepresnum = 1 
DOCKED: USER  
DOCKED: REMARK  Name = 
DOCKED: REMARK  9 active torsions:
DOCKED: REMARK  status: ('A' for Active; 'I' for Inactive)
DOCKED: REMARK    1  A    between atoms: C_2  and  C_5
DOCKED: REMARK    2  A    between atoms: N_3  and  O_4
DOCKED: REMARK    3  A    between atoms: C_5  and  C_6
DOCKED: REMARK    4  A    between atoms: C_6  and  C_7
DOCKED: REMARK    5  A    between atoms: C_7  and  C_8
DOCKED: REMARK    6  A    between atoms: C_8  and  C_9
DOCKED: REMARK    7  A    between atoms: C_9  and  C_10
DOCKED: REMARK    8  A    between atoms: C_10  and  C_11
DOCKED: REMARK    9  A    between atoms: N_12  and  C_13
DOCKED: REMARK                            x       y       z     vdW  Elec       q    Type
DOCKED: REMARK                         _______ _______ _______ _____ _____    ______ ____
DOCKED: USER                              x       y       z     vdW  Elec       q    Type
DOCKED: USER                           _______ _______ _______ _____ _____    ______ ____
DOCKED: ROOT
DOCKED: ATOM      1  C   UNL     1      26.311 -15.412  -0.836 -0.40 -0.00    +0.000 C 
DOCKED: ENDROOT
DOCKED: BRANCH   1   2
DOCKED: ATOM      2  C   UNL     1      26.217 -16.634  -1.762 -0.51 -0.00    +0.000 C 
DOCKED: BRANCH   2   3
DOCKED: ATOM      3  C   UNL     1      24.772 -16.862  -2.228 -0.54 -0.00    +0.000 C 
DOCKED: BRANCH   3   4
DOCKED: ATOM      4  C   UNL     1      24.195 -18.205  -1.743 -0.63 -0.00    +0.000 C 
DOCKED: BRANCH   4   5
DOCKED: ATOM      5  C   UNL     1      23.263 -18.093  -0.525 -0.81 -0.00    +0.000 C 
DOCKED: BRANCH   5   7
DOCKED: ATOM      6  O   UNL     1      21.000 -17.352  -0.729 -1.96 -0.00    +0.000 OA
DOCKED: ATOM      7  C   UNL     1      21.822 -18.293  -0.897 -0.80 -0.00    +0.000 C 
DOCKED: ATOM      8  N   UNL     1      21.374 -19.548  -1.415 -0.69 -0.00    +0.000 N 
DOCKED: ATOM      9  H   UNL     1      22.020 -20.278  -1.551 -0.35 -0.00    +0.000 HD
DOCKED: BRANCH   8  10
DOCKED: ATOM     10  O   UNL     1      20.068 -19.740  -1.721 -1.81 -0.00    +0.000 OA
DOCKED: ATOM     11  H   UNL     1      19.605 -18.889  -1.712 -0.24 -0.00    +0.000 HD
DOCKED: ENDBRANCH   8  10
DOCKED: ENDBRANCH   5   7
DOCKED: ENDBRANCH   4   5
DOCKED: ENDBRANCH   3   4
DOCKED: ENDBRANCH   2   3
DOCKED: ENDBRANCH   1   2
DOCKED: BRANCH   1  12
DOCKED: ATOM     12  C   UNL     1      27.144 -15.700   0.421 -0.24 -0.00    +0.000 C 
DOCKED: BRANCH  12  13
DOCKED: ATOM     13  C   UNL     1      27.411 -14.444   1.200 -0.28 -0.00    +0.000 C 
DOCKED: ATOM     14  N   UNL     1      28.254 -14.485   2.363 -0.29 -0.00    +0.000 N 
DOCKED: ATOM     15  O   UNL     1      26.883 -13.362   0.829 -0.32 -0.00    +0.000 OA
DOCKED: ATOM     16  H   UNL     1      28.884 -15.235   2.450 -1.94 -0.00    +0.000 HD
DOCKED: BRANCH  14  17
DOCKED: ATOM     17  C   UNL     1      28.233 -13.496   3.407 -0.32 -0.00    +0.000 A 
DOCKED: ATOM     18  C   UNL     1      28.122 -13.904   4.744 -0.50 -0.00    +0.000 A 
DOCKED: ATOM     19  C   UNL     1      28.068 -12.954   5.765 -0.41 -0.00    +0.000 A 
DOCKED: ATOM     20  C   UNL     1      28.112 -11.598   5.439 -0.36 +0.00    +0.000 A 
DOCKED: ATOM     21  N   UNL     1      28.195 -11.213   4.139 -0.24 +0.00    +0.000 NA
DOCKED: ATOM     22  C   UNL     1      28.253 -12.118   3.126 -0.20 -0.00    +0.000 A 
DOCKED: ENDBRANCH  14  17
DOCKED: ENDBRANCH  12  13
DOCKED: ENDBRANCH   1  12
DOCKED: TORSDOF 9
DOCKED: TER
DOCKED: ENDMDL
________________________________________________________________________________


	BEGINNING GENETIC ALGORITHM DOCKING 53 of 100
Run: 53 Seed: 1469629533 2009298276 [ Run 53 of 100 GA/GALS ]
Beginning LAMARCKIAN GENETIC ALGORITHM (LGA), with a maximum of 2500000 energy evaluations.

Final-Value: -12.316


	FINAL GENETIC ALGORITHM DOCKED STATE
	_______________________________________________


Detailed state:  trans 28.371 -17.054 -0.526 quatxyzw -0.532189 0.190004 -0.818895 -0.100424 center -0.121 -0.193 0.463 ntor 9 -6.1949 -5.0763 47.2131 70.5482 79.4166 -155.2538 56.5883 -22.1508 12.0081
State:	 28.371 -17.054  -0.526  -0.535  0.191 -0.823 -168.473     -6.19   -5.08   47.21   70.55   79.42 -155.25   56.59  -22.15   12.01

DOCKED: MODEL       53
DOCKED: USER    Run = 53
DOCKED: USER    DPF = ligand_dock.biased.dpf
DOCKED: USER  
DOCKED: USER    Estimated Free Energy of Binding    =   -8.21 kcal/mol  [=(1)+(2)+(3)-(4)]
DOCKED: USER    Estimated Inhibition Constant, Ki   =  963.62 nM (nanomolar)  [Temperature = 298.15 K]
DOCKED: USER    
DOCKED: USER    (1) Final Intermolecular Energy     =  -10.89 kcal/mol
DOCKED: USER        vdW + Hbond + desolv Energy     =  -10.89 kcal/mol
DOCKED: USER        Electrostatic Energy            =   +0.00 kcal/mol
DOCKED: USER    (2) Final Total Internal Energy     =   -1.42 kcal/mol
DOCKED: USER    (3) Torsional Free Energy           =   +2.68 kcal/mol
DOCKED: USER    (4) Unbound System's Energy  [=(2)] =   -1.42 kcal/mol
DOCKED: USER    
DOCKED: USER    
DOCKED: USER    NEWDPF move ligand.pdbqt
DOCKED: USER    NEWDPF about -0.121000 -0.193000 0.463000
DOCKED: USER    NEWDPF tran0 28.370653 -17.053836 -0.525595
DOCKED: USER    NEWDPF quaternion0 -0.532189 0.190004 -0.818895 -0.100424
DOCKED: USER    NEWDPF axisangle0 -0.534893 0.190969 -0.823055 -168.472872
DOCKED: USER    NEWDPF quat0 -0.534893 0.190969 -0.823055 -168.472872
DOCKED: USER    NEWDPF dihe0 -6.19 -5.08 47.21 70.55 79.42 -155.25 56.59 -22.15 12.01 
DOCKED: USER  keepresnum = 1 
DOCKED: USER  
DOCKED: REMARK  Name = 
DOCKED: REMARK  9 active torsions:
DOCKED: REMARK  status: ('A' for Active; 'I' for Inactive)
DOCKED: REMARK    1  A    between atoms: C_2  and  C_5
DOCKED: REMARK    2  A    between atoms: N_3  and  O_4
DOCKED: REMARK    3  A    between atoms: C_5  and  C_6
DOCKED: REMARK    4  A    between atoms: C_6  and  C_7
DOCKED: REMARK    5  A    between atoms: C_7  and  C_8
DOCKED: REMARK    6  A    between atoms: C_8  and  C_9
DOCKED: REMARK    7  A    between atoms: C_9  and  C_10
DOCKED: REMARK    8  A    between atoms: C_10  and  C_11
DOCKED: REMARK    9  A    between atoms: N_12  and  C_13
DOCKED: REMARK                            x       y       z     vdW  Elec       q    Type
DOCKED: REMARK                         _______ _______ _______ _____ _____    ______ ____
DOCKED: USER                              x       y       z     vdW  Elec       q    Type
DOCKED: USER                           _______ _______ _______ _____ _____    ______ ____
DOCKED: ROOT
DOCKED: ATOM      1  C   UNL     1      25.334 -16.056  -0.846 -0.47 -0.00    +0.000 C 
DOCKED: ENDROOT
DOCKED: BRANCH   1   2
DOCKED: ATOM      2  C   UNL     1      25.869 -17.482  -0.644 -0.63 -0.00    +0.000 C 
DOCKED: BRANCH   2   3
DOCKED: ATOM      3  C   UNL     1      24.734 -18.450  -0.282 -0.66 -0.00    +0.000 C 
DOCKED: BRANCH   3   4
DOCKED: ATOM      4  C   UNL     1      23.344 -17.902  -0.650 -0.80 -0.00    +0.000 C 
DOCKED: BRANCH   4   5
DOCKED: ATOM      5  C   UNL     1      22.340 -18.972  -1.109 -0.82 -0.00    +0.000 C 
DOCKED: BRANCH   5   7
DOCKED: ATOM      6  O   UNL     1      20.260 -17.866  -0.706 -2.21 +0.00    +0.000 OA
DOCKED: ATOM      7  C   UNL     1      21.013 -18.835  -0.420 -0.81 -0.00    +0.000 C 
DOCKED: ATOM      8  N   UNL     1      20.612 -19.781   0.575 -0.68 -0.00    +0.000 N 
DOCKED: ATOM      9  H   UNL     1      21.200 -20.540   0.791 -0.59 -0.00    +0.000 HD
DOCKED: BRANCH   8  10
DOCKED: ATOM     10  O   UNL     1      19.430 -19.642   1.221 -0.75 -0.00    +0.000 OA
DOCKED: ATOM     11  H   UNL     1      19.019 -18.802   0.967 -0.34 -0.00    +0.000 HD
DOCKED: ENDBRANCH   8  10
DOCKED: ENDBRANCH   5   7
DOCKED: ENDBRANCH   4   5
DOCKED: ENDBRANCH   3   4
DOCKED: ENDBRANCH   2   3
DOCKED: ENDBRANCH   1   2
DOCKED: BRANCH   1  12
DOCKED: ATOM     12  C   UNL     1      25.705 -15.487  -2.222 -0.50 -0.00    +0.000 C 
DOCKED: BRANCH  12  13
DOCKED: ATOM     13  C   UNL     1      27.193 -15.472  -2.426 -0.34 -0.00    +0.000 C 
DOCKED: ATOM     14  N   UNL     1      27.904 -16.703  -2.630 -0.27 -0.00    +0.000 N 
DOCKED: ATOM     15  O   UNL     1      27.808 -14.371  -2.407 -0.19 -0.00    +0.000 OA
DOCKED: ATOM     16  H   UNL     1      27.395 -17.483  -2.945 +0.05 -0.00    +0.000 HD
DOCKED: BRANCH  14  17
DOCKED: ATOM     17  C   UNL     1      29.315 -16.866  -2.401 -0.21 -0.00    +0.000 A 
DOCKED: ATOM     18  C   UNL     1      30.186 -16.967  -3.495 -0.19 -0.00    +0.000 A 
DOCKED: ATOM     19  C   UNL     1      31.553 -17.159  -3.287 -0.09 -0.00    +0.000 A 
DOCKED: ATOM     20  C   UNL     1      32.038 -17.261  -1.983 -0.06 -0.00    +0.000 A 
DOCKED: ATOM     21  N   UNL     1      31.182 -17.186  -0.930 -0.14 -0.00    +0.000 NA
DOCKED: ATOM     22  C   UNL     1      29.847 -16.996  -1.105 -0.21 -0.00    +0.000 A 
DOCKED: ENDBRANCH  14  17
DOCKED: ENDBRANCH  12  13
DOCKED: ENDBRANCH   1  12
DOCKED: TORSDOF 9
DOCKED: TER
DOCKED: ENDMDL
________________________________________________________________________________


	BEGINNING GENETIC ALGORITHM DOCKING 54 of 100
Run: 54 Seed: 1233094766 1301649710 [ Run 54 of 100 GA/GALS ]
Beginning LAMARCKIAN GENETIC ALGORITHM (LGA), with a maximum of 2500000 energy evaluations.

Final-Value: -13.403


	FINAL GENETIC ALGORITHM DOCKED STATE
	_______________________________________________


Detailed state:  trans 26.911 -17.724 -4.021 quatxyzw -0.338031 0.906262 -0.253635 -0.009712 center -0.121 -0.193 0.463 ntor 9 -43.5721 177.3704 150.0016 -15.8782 86.1931 158.9252 31.8250 5.8834 -7.5765
State:	 26.911 -17.724  -4.021  -0.338  0.906 -0.254 -178.887    -43.57  177.37  150.00  -15.88   86.19  158.93   31.83    5.88   -7.58

DOCKED: MODEL       54
DOCKED: USER    Run = 54
DOCKED: USER    DPF = ligand_dock.biased.dpf
DOCKED: USER  
DOCKED: USER    Estimated Free Energy of Binding    =   -9.68 kcal/mol  [=(1)+(2)+(3)-(4)]
DOCKED: USER    Estimated Inhibition Constant, Ki   =   80.75 nM (nanomolar)  [Temperature = 298.15 K]
DOCKED: USER    
DOCKED: USER    (1) Final Intermolecular Energy     =  -12.36 kcal/mol
DOCKED: USER        vdW + Hbond + desolv Energy     =  -12.36 kcal/mol
DOCKED: USER        Electrostatic Energy            =   +0.00 kcal/mol
DOCKED: USER    (2) Final Total Internal Energy     =   -1.04 kcal/mol
DOCKED: USER    (3) Torsional Free Energy           =   +2.68 kcal/mol
DOCKED: USER    (4) Unbound System's Energy  [=(2)] =   -1.04 kcal/mol
DOCKED: USER    
DOCKED: USER    
DOCKED: USER    NEWDPF move ligand.pdbqt
DOCKED: USER    NEWDPF about -0.121000 -0.193000 0.463000
DOCKED: USER    NEWDPF tran0 26.911209 -17.723549 -4.021101
DOCKED: USER    NEWDPF quaternion0 -0.338031 0.906262 -0.253635 -0.009712
DOCKED: USER    NEWDPF axisangle0 -0.338047 0.906304 -0.253647 -178.887080
DOCKED: USER    NEWDPF quat0 -0.338047 0.906304 -0.253647 -178.887080
DOCKED: USER    NEWDPF dihe0 -43.57 177.37 150.00 -15.88 86.19 158.93 31.83 5.88 -7.58 
DOCKED: USER  keepresnum = 1 
DOCKED: USER  
DOCKED: REMARK  Name = 
DOCKED: REMARK  9 active torsions:
DOCKED: REMARK  status: ('A' for Active; 'I' for Inactive)
DOCKED: REMARK    1  A    between atoms: C_2  and  C_5
DOCKED: REMARK    2  A    between atoms: N_3  and  O_4
DOCKED: REMARK    3  A    between atoms: C_5  and  C_6
DOCKED: REMARK    4  A    between atoms: C_6  and  C_7
DOCKED: REMARK    5  A    between atoms: C_7  and  C_8
DOCKED: REMARK    6  A    between atoms: C_8  and  C_9
DOCKED: REMARK    7  A    between atoms: C_9  and  C_10
DOCKED: REMARK    8  A    between atoms: C_10  and  C_11
DOCKED: REMARK    9  A    between atoms: N_12  and  C_13
DOCKED: REMARK                            x       y       z     vdW  Elec       q    Type
DOCKED: REMARK                         _______ _______ _______ _____ _____    ______ ____
DOCKED: USER                              x       y       z     vdW  Elec       q    Type
DOCKED: USER                           _______ _______ _______ _____ _____    ______ ____
DOCKED: ROOT
DOCKED: ATOM      1  C   UNL     1      26.248 -17.133  -0.934 -0.57 -0.00    +0.000 C 
DOCKED: ENDROOT
DOCKED: BRANCH   1   2
DOCKED: ATOM      2  C   UNL     1      25.323 -17.044  -2.158 -0.58 -0.00    +0.000 C 
DOCKED: BRANCH   2   3
DOCKED: ATOM      3  C   UNL     1      23.908 -17.532  -1.816 -0.55 -0.00    +0.000 C 
DOCKED: BRANCH   3   4
DOCKED: ATOM      4  C   UNL     1      23.893 -18.556  -0.666 -0.80 -0.00    +0.000 C 
DOCKED: BRANCH   4   5
DOCKED: ATOM      5  C   UNL     1      22.591 -18.574   0.152 -0.69 -0.00    +0.000 C 
DOCKED: BRANCH   5   7
DOCKED: ATOM      6  O   UNL     1      20.682 -17.509  -0.816 -2.10 -0.00    +0.000 OA
DOCKED: ATOM      7  C   UNL     1      21.373 -18.560  -0.725 -0.86 -0.00    +0.000 C 
DOCKED: ATOM      8  N   UNL     1      20.979 -19.736  -1.438 -0.75 -0.00    +0.000 N 
DOCKED: ATOM      9  H   UNL     1      21.524 -20.553  -1.370 -0.18 -0.00    +0.000 HD
DOCKED: BRANCH   8  10
DOCKED: ATOM     10  O   UNL     1      19.863 -19.735  -2.205 -1.88 -0.00    +0.000 OA
DOCKED: ATOM     11  H   UNL     1      19.145 -19.289  -1.730 -0.52 -0.00    +0.000 HD
DOCKED: ENDBRANCH   8  10
DOCKED: ENDBRANCH   5   7
DOCKED: ENDBRANCH   4   5
DOCKED: ENDBRANCH   3   4
DOCKED: ENDBRANCH   2   3
DOCKED: ENDBRANCH   1   2
DOCKED: BRANCH   1  12
DOCKED: ATOM     12  C   UNL     1      27.332 -16.047  -0.947 -0.38 -0.00    +0.000 C 
DOCKED: BRANCH  12  13
DOCKED: ATOM     13  C   UNL     1      28.443 -16.393  -1.897 -0.30 -0.00    +0.000 C 
DOCKED: ATOM     14  N   UNL     1      28.481 -15.800  -3.205 -0.24 -0.00    +0.000 N 
DOCKED: ATOM     15  O   UNL     1      29.331 -17.212  -1.538 -0.30 -0.00    +0.000 OA
DOCKED: ATOM     16  H   UNL     1      27.985 -14.962  -3.346 +0.00 -0.00    +0.000 HD
DOCKED: BRANCH  14  17
DOCKED: ATOM     17  C   UNL     1      29.199 -16.355  -4.320 -0.24 -0.00    +0.000 A 
DOCKED: ATOM     18  C   UNL     1      29.980 -17.505  -4.137 -0.21 -0.00    +0.000 A 
DOCKED: ATOM     19  C   UNL     1      30.708 -18.034  -5.204 -0.26 -0.00    +0.000 A 
DOCKED: ATOM     20  C   UNL     1      30.662 -17.400  -6.446 -0.30 -0.00    +0.000 A 
DOCKED: ATOM     21  N   UNL     1      29.921 -16.272  -6.606 -0.34 -0.00    +0.000 NA
DOCKED: ATOM     22  C   UNL     1      29.200 -15.738  -5.584 -0.32 -0.00    +0.000 A 
DOCKED: ENDBRANCH  14  17
DOCKED: ENDBRANCH  12  13
DOCKED: ENDBRANCH   1  12
DOCKED: TORSDOF 9
DOCKED: TER
DOCKED: ENDMDL
________________________________________________________________________________


	BEGINNING GENETIC ALGORITHM DOCKING 55 of 100
Run: 55 Seed: 603729652 7906533 [ Run 55 of 100 GA/GALS ]
Beginning LAMARCKIAN GENETIC ALGORITHM (LGA), with a maximum of 2500000 energy evaluations.

Final-Value: -13.356


	FINAL GENETIC ALGORITHM DOCKED STATE
	_______________________________________________


Detailed state:  trans 28.695 -14.335 0.519 quatxyzw -0.079426 -0.573793 -0.482040 0.657336 center -0.121 -0.193 0.463 ntor 9 33.1790 174.1683 148.8577 -150.2620 162.7815 18.8228 -149.1993 -141.5950 -167.6099
State:	 28.695 -14.335   0.519  -0.105 -0.761 -0.640 97.806     33.18  174.17  148.86 -150.26  162.78   18.82 -149.20 -141.59 -167.61

DOCKED: MODEL       55
DOCKED: USER    Run = 55
DOCKED: USER    DPF = ligand_dock.biased.dpf
DOCKED: USER  
DOCKED: USER    Estimated Free Energy of Binding    =   -9.58 kcal/mol  [=(1)+(2)+(3)-(4)]
DOCKED: USER    Estimated Inhibition Constant, Ki   =   95.81 nM (nanomolar)  [Temperature = 298.15 K]
DOCKED: USER    
DOCKED: USER    (1) Final Intermolecular Energy     =  -12.26 kcal/mol
DOCKED: USER        vdW + Hbond + desolv Energy     =  -12.26 kcal/mol
DOCKED: USER        Electrostatic Energy            =   +0.00 kcal/mol
DOCKED: USER    (2) Final Total Internal Energy     =   -1.10 kcal/mol
DOCKED: USER    (3) Torsional Free Energy           =   +2.68 kcal/mol
DOCKED: USER    (4) Unbound System's Energy  [=(2)] =   -1.10 kcal/mol
DOCKED: USER    
DOCKED: USER    
DOCKED: USER    NEWDPF move ligand.pdbqt
DOCKED: USER    NEWDPF about -0.121000 -0.193000 0.463000
DOCKED: USER    NEWDPF tran0 28.695401 -14.334867 0.518607
DOCKED: USER    NEWDPF quaternion0 -0.079426 -0.573793 -0.482040 0.657336
DOCKED: USER    NEWDPF axisangle0 -0.105396 -0.761405 -0.639652 97.805977
DOCKED: USER    NEWDPF quat0 -0.105396 -0.761405 -0.639652 97.805977
DOCKED: USER    NEWDPF dihe0 33.18 174.17 148.86 -150.26 162.78 18.82 -149.20 -141.59 -167.61 
DOCKED: USER  keepresnum = 1 
DOCKED: USER  
DOCKED: REMARK  Name = 
DOCKED: REMARK  9 active torsions:
DOCKED: REMARK  status: ('A' for Active; 'I' for Inactive)
DOCKED: REMARK    1  A    between atoms: C_2  and  C_5
DOCKED: REMARK    2  A    between atoms: N_3  and  O_4
DOCKED: REMARK    3  A    between atoms: C_5  and  C_6
DOCKED: REMARK    4  A    between atoms: C_6  and  C_7
DOCKED: REMARK    5  A    between atoms: C_7  and  C_8
DOCKED: REMARK    6  A    between atoms: C_8  and  C_9
DOCKED: REMARK    7  A    between atoms: C_9  and  C_10
DOCKED: REMARK    8  A    between atoms: C_10  and  C_11
DOCKED: REMARK    9  A    between atoms: N_12  and  C_13
DOCKED: REMARK                            x       y       z     vdW  Elec       q    Type
DOCKED: REMARK                         _______ _______ _______ _____ _____    ______ ____
DOCKED: USER                              x       y       z     vdW  Elec       q    Type
DOCKED: USER                           _______ _______ _______ _____ _____    ______ ____
DOCKED: ROOT
DOCKED: ATOM      1  C   UNL     1      26.414 -15.610  -1.349 -0.42 -0.00    +0.000 C 
DOCKED: ENDROOT
DOCKED: BRANCH   1   2
DOCKED: ATOM      2  C   UNL     1      26.418 -14.266  -0.605 -0.32 -0.00    +0.000 C 
DOCKED: BRANCH   2   3
DOCKED: ATOM      3  C   UNL     1      27.072 -14.403   0.777 -0.26 -0.00    +0.000 C 
DOCKED: BRANCH   3   4
DOCKED: ATOM      4  C   UNL     1      26.823 -13.180   1.678 -0.33 -0.00    +0.000 C 
DOCKED: BRANCH   4   5
DOCKED: ATOM      5  C   UNL     1      28.085 -12.621   2.354 -0.24 -0.00    +0.000 C 
DOCKED: BRANCH   5   7
DOCKED: ATOM      6  O   UNL     1      28.200 -12.624   4.741 -0.38 -0.00    +0.000 OA
DOCKED: ATOM      7  C   UNL     1      28.357 -13.279   3.676 -0.35 -0.00    +0.000 C 
DOCKED: ATOM      8  N   UNL     1      28.815 -14.633   3.731 -0.38 -0.00    +0.000 N 
DOCKED: ATOM      9  H   UNL     1      28.929 -15.143   2.897 -1.83 -0.00    +0.000 HD
DOCKED: BRANCH   8  10
DOCKED: ATOM     10  O   UNL     1      29.091 -15.219   4.920 -0.43 -0.00    +0.000 OA
DOCKED: ATOM     11  H   UNL     1      28.491 -14.872   5.599 -0.32 -0.00    +0.000 HD
DOCKED: ENDBRANCH   8  10
DOCKED: ENDBRANCH   5   7
DOCKED: ENDBRANCH   4   5
DOCKED: ENDBRANCH   3   4
DOCKED: ENDBRANCH   2   3
DOCKED: ENDBRANCH   1   2
DOCKED: BRANCH   1  12
DOCKED: ATOM     12  C   UNL     1      26.347 -16.805  -0.387 -0.51 -0.00    +0.000 C 
DOCKED: BRANCH  12  13
DOCKED: ATOM     13  C   UNL     1      25.153 -17.670  -0.672 -0.69 -0.00    +0.000 C 
DOCKED: ATOM     14  N   UNL     1      23.857 -17.074  -0.846 -0.64 -0.00    +0.000 N 
DOCKED: ATOM     15  O   UNL     1      25.299 -18.920  -0.748 -0.66 -0.00    +0.000 OA
DOCKED: ATOM     16  H   UNL     1      23.816 -16.122  -1.090 -0.03 -0.00    +0.000 HD
DOCKED: BRANCH  14  17
DOCKED: ATOM     17  C   UNL     1      22.617 -17.784  -0.686 -0.72 -0.00    +0.000 A 
DOCKED: ATOM     18  C   UNL     1      22.635 -19.163  -0.439 -0.64 -0.00    +0.000 A 
DOCKED: ATOM     19  C   UNL     1      21.437 -19.869  -0.315 -0.32 -0.00    +0.000 A 
DOCKED: ATOM     20  C   UNL     1      20.226 -19.191  -0.453 -0.76 -0.00    +0.000 A 
DOCKED: ATOM     21  N   UNL     1      20.219 -17.858  -0.717 -1.98 -0.00    +0.000 NA
DOCKED: ATOM     22  C   UNL     1      21.372 -17.146  -0.839 -0.04 -0.00    +0.000 A 
DOCKED: ENDBRANCH  14  17
DOCKED: ENDBRANCH  12  13
DOCKED: ENDBRANCH   1  12
DOCKED: TORSDOF 9
DOCKED: TER
DOCKED: ENDMDL
________________________________________________________________________________


	BEGINNING GENETIC ALGORITHM DOCKING 56 of 100
Run: 56 Seed: 594788616 2027635961 [ Run 56 of 100 GA/GALS ]
Beginning LAMARCKIAN GENETIC ALGORITHM (LGA), with a maximum of 2500000 energy evaluations.

Final-Value: -15.083


	FINAL GENETIC ALGORITHM DOCKED STATE
	_______________________________________________


Detailed state:  trans 24.027 -15.508 0.419 quatxyzw -0.443008 -0.146891 -0.241565 -0.850772 center -0.121 -0.193 0.463 ntor 9 1.4145 26.8068 27.9454 -179.4291 90.3730 31.9284 -174.8217 -149.4560 -54.0361
State:	 24.027 -15.508   0.419  -0.843 -0.280 -0.460 -63.409      1.41   26.81   27.95 -179.43   90.37   31.93 -174.82 -149.46  -54.04

DOCKED: MODEL       56
DOCKED: USER    Run = 56
DOCKED: USER    DPF = ligand_dock.biased.dpf
DOCKED: USER  
DOCKED: USER    Estimated Free Energy of Binding    =  -11.03 kcal/mol  [=(1)+(2)+(3)-(4)]
DOCKED: USER    Estimated Inhibition Constant, Ki   =    8.28 nM (nanomolar)  [Temperature = 298.15 K]
DOCKED: USER    
DOCKED: USER    (1) Final Intermolecular Energy     =  -13.71 kcal/mol
DOCKED: USER        vdW + Hbond + desolv Energy     =  -13.71 kcal/mol
DOCKED: USER        Electrostatic Energy            =   +0.00 kcal/mol
DOCKED: USER    (2) Final Total Internal Energy     =   -1.37 kcal/mol
DOCKED: USER    (3) Torsional Free Energy           =   +2.68 kcal/mol
DOCKED: USER    (4) Unbound System's Energy  [=(2)] =   -1.37 kcal/mol
DOCKED: USER    
DOCKED: USER    
DOCKED: USER    NEWDPF move ligand.pdbqt
DOCKED: USER    NEWDPF about -0.121000 -0.193000 0.463000
DOCKED: USER    NEWDPF tran0 24.026678 -15.507678 0.419281
DOCKED: USER    NEWDPF quaternion0 -0.443008 -0.146891 -0.241565 -0.850772
DOCKED: USER    NEWDPF axisangle0 -0.842966 -0.279508 -0.459655 -63.408520
DOCKED: USER    NEWDPF quat0 -0.842966 -0.279508 -0.459655 -63.408520
DOCKED: USER    NEWDPF dihe0 1.41 26.81 27.95 -179.43 90.37 31.93 -174.82 -149.46 -54.04 
DOCKED: USER  keepresnum = 1 
DOCKED: USER  
DOCKED: REMARK  Name = 
DOCKED: REMARK  9 active torsions:
DOCKED: REMARK  status: ('A' for Active; 'I' for Inactive)
DOCKED: REMARK    1  A    between atoms: C_2  and  C_5
DOCKED: REMARK    2  A    between atoms: N_3  and  O_4
DOCKED: REMARK    3  A    between atoms: C_5  and  C_6
DOCKED: REMARK    4  A    between atoms: C_6  and  C_7
DOCKED: REMARK    5  A    between atoms: C_7  and  C_8
DOCKED: REMARK    6  A    between atoms: C_8  and  C_9
DOCKED: REMARK    7  A    between atoms: C_9  and  C_10
DOCKED: REMARK    8  A    between atoms: C_10  and  C_11
DOCKED: REMARK    9  A    between atoms: N_12  and  C_13
DOCKED: REMARK                            x       y       z     vdW  Elec       q    Type
DOCKED: REMARK                         _______ _______ _______ _____ _____    ______ ____
DOCKED: USER                              x       y       z     vdW  Elec       q    Type
DOCKED: USER                           _______ _______ _______ _____ _____    ______ ____
DOCKED: ROOT
DOCKED: ATOM      1  C   UNL     1      24.304 -18.547  -0.583 -0.75 -0.00    +0.000 C 
DOCKED: ENDROOT
DOCKED: BRANCH   1   2
DOCKED: ATOM      2  C   UNL     1      25.313 -17.393  -0.697 -0.66 -0.00    +0.000 C 
DOCKED: BRANCH   2   3
DOCKED: ATOM      3  C   UNL     1      24.768 -16.273  -1.595 -0.54 -0.00    +0.000 C 
DOCKED: BRANCH   3   4
DOCKED: ATOM      4  C   UNL     1      25.885 -15.442  -2.253 -0.48 -0.00    +0.000 C 
DOCKED: BRANCH   4   5
DOCKED: ATOM      5  C   UNL     1      25.465 -14.724  -3.547 -0.55 -0.00    +0.000 C 
DOCKED: BRANCH   5   7
DOCKED: ATOM      6  O   UNL     1      25.729 -15.994  -5.554 -1.07 +0.00    +0.000 OA
DOCKED: ATOM      7  C   UNL     1      26.254 -15.194  -4.734 -0.56 -0.00    +0.000 C 
DOCKED: ATOM      8  N   UNL     1      27.603 -14.758  -4.926 -0.37 -0.00    +0.000 N 
DOCKED: ATOM      9  H   UNL     1      28.007 -14.128  -4.288 +0.00 -0.00    +0.000 HD
DOCKED: BRANCH   8  10
DOCKED: ATOM     10  O   UNL     1      28.328 -15.204  -5.980 -0.68 -0.00    +0.000 OA
DOCKED: ATOM     11  H   UNL     1      27.781 -15.795  -6.521 -0.04 +0.00    +0.000 HD
DOCKED: ENDBRANCH   8  10
DOCKED: ENDBRANCH   5   7
DOCKED: ENDBRANCH   4   5
DOCKED: ENDBRANCH   3   4
DOCKED: ENDBRANCH   2   3
DOCKED: ENDBRANCH   1   2
DOCKED: BRANCH   1  12
DOCKED: ATOM     12  C   UNL     1      23.071 -18.328  -1.469 -0.72 -0.00    +0.000 C 
DOCKED: BRANCH  12  13
DOCKED: ATOM     13  C   UNL     1      21.803 -18.385  -0.667 -0.86 -0.00    +0.000 C 
DOCKED: ATOM     14  N   UNL     1      21.509 -19.540   0.134 -0.52 -0.00    +0.000 N 
DOCKED: ATOM     15  O   UNL     1      20.999 -17.414  -0.711 -2.02 -0.00    +0.000 OA
DOCKED: ATOM     16  H   UNL     1      22.257 -20.122   0.397 -0.52 -0.00    +0.000 HD
DOCKED: BRANCH  14  17
DOCKED: ATOM     17  C   UNL     1      20.188 -19.899   0.576 -0.68 -0.00    +0.000 A 
DOCKED: ATOM     18  C   UNL     1      19.948 -20.106   1.942 -0.49 -0.00    +0.000 A 
DOCKED: ATOM     19  C   UNL     1      18.679 -20.487   2.380 -0.56 -0.00    +0.000 A 
DOCKED: ATOM     20  C   UNL     1      17.659 -20.672   1.446 -0.41 -0.00    +0.000 A 
DOCKED: ATOM     21  N   UNL     1      17.909 -20.493   0.122 -0.61 -0.00    +0.000 NA
DOCKED: ATOM     22  C   UNL     1      19.136 -20.118  -0.331 -0.63 -0.00    +0.000 A 
DOCKED: ENDBRANCH  14  17
DOCKED: ENDBRANCH  12  13
DOCKED: ENDBRANCH   1  12
DOCKED: TORSDOF 9
DOCKED: TER
DOCKED: ENDMDL
________________________________________________________________________________


	BEGINNING GENETIC ALGORITHM DOCKING 57 of 100
Run: 57 Seed: 979288939 1962869059 [ Run 57 of 100 GA/GALS ]
Beginning LAMARCKIAN GENETIC ALGORITHM (LGA), with a maximum of 2500000 energy evaluations.

Final-Value: -13.985


	FINAL GENETIC ALGORITHM DOCKED STATE
	_______________________________________________


Detailed state:  trans 25.776 -18.991 -2.566 quatxyzw 0.716843 -0.342096 0.323735 -0.514103 center -0.121 -0.193 0.463 ntor 9 -8.6206 9.3645 49.6785 -170.9822 122.6742 5.2577 -177.8271 -143.5616 -56.7593
State:	 25.776 -18.991  -2.566   0.836 -0.399  0.377 -118.125     -8.62    9.36   49.68 -170.98  122.67    5.26 -177.83 -143.56  -56.76

DOCKED: MODEL       57
DOCKED: USER    Run = 57
DOCKED: USER    DPF = ligand_dock.biased.dpf
DOCKED: USER  
DOCKED: USER    Estimated Free Energy of Binding    =   -9.98 kcal/mol  [=(1)+(2)+(3)-(4)]
DOCKED: USER    Estimated Inhibition Constant, Ki   =   48.24 nM (nanomolar)  [Temperature = 298.15 K]
DOCKED: USER    
DOCKED: USER    (1) Final Intermolecular Energy     =  -12.67 kcal/mol
DOCKED: USER        vdW + Hbond + desolv Energy     =  -12.67 kcal/mol
DOCKED: USER        Electrostatic Energy            =   +0.00 kcal/mol
DOCKED: USER    (2) Final Total Internal Energy     =   -1.32 kcal/mol
DOCKED: USER    (3) Torsional Free Energy           =   +2.68 kcal/mol
DOCKED: USER    (4) Unbound System's Energy  [=(2)] =   -1.32 kcal/mol
DOCKED: USER    
DOCKED: USER    
DOCKED: USER    NEWDPF move ligand.pdbqt
DOCKED: USER    NEWDPF about -0.121000 -0.193000 0.463000
DOCKED: USER    NEWDPF tran0 25.775509 -18.991192 -2.565629
DOCKED: USER    NEWDPF quaternion0 0.716843 -0.342096 0.323735 -0.514103
DOCKED: USER    NEWDPF axisangle0 0.835746 -0.398839 0.377433 -118.124962
DOCKED: USER    NEWDPF quat0 0.835746 -0.398839 0.377433 -118.124962
DOCKED: USER    NEWDPF dihe0 -8.62 9.36 49.68 -170.98 122.67 5.26 -177.83 -143.56 -56.76 
DOCKED: USER  keepresnum = 1 
DOCKED: USER  
DOCKED: REMARK  Name = 
DOCKED: REMARK  9 active torsions:
DOCKED: REMARK  status: ('A' for Active; 'I' for Inactive)
DOCKED: REMARK    1  A    between atoms: C_2  and  C_5
DOCKED: REMARK    2  A    between atoms: N_3  and  O_4
DOCKED: REMARK    3  A    between atoms: C_5  and  C_6
DOCKED: REMARK    4  A    between atoms: C_6  and  C_7
DOCKED: REMARK    5  A    between atoms: C_7  and  C_8
DOCKED: REMARK    6  A    between atoms: C_8  and  C_9
DOCKED: REMARK    7  A    between atoms: C_9  and  C_10
DOCKED: REMARK    8  A    between atoms: C_10  and  C_11
DOCKED: REMARK    9  A    between atoms: N_12  and  C_13
DOCKED: REMARK                            x       y       z     vdW  Elec       q    Type
DOCKED: REMARK                         _______ _______ _______ _____ _____    ______ ____
DOCKED: USER                              x       y       z     vdW  Elec       q    Type
DOCKED: USER                           _______ _______ _______ _____ _____    ______ ____
DOCKED: ROOT
DOCKED: ATOM      1  C   UNL     1      26.316 -15.979  -1.590 -0.46 -0.00    +0.000 C 
DOCKED: ENDROOT
DOCKED: BRANCH   1   2
DOCKED: ATOM      2  C   UNL     1      25.693 -17.151  -0.816 -0.61 -0.00    +0.000 C 
DOCKED: BRANCH   2   3
DOCKED: ATOM      3  C   UNL     1      24.331 -17.540  -1.407 -0.72 -0.00    +0.000 C 
DOCKED: BRANCH   3   4
DOCKED: ATOM      4  C   UNL     1      23.679 -18.725  -0.672 -0.80 -0.00    +0.000 C 
DOCKED: BRANCH   4   5
DOCKED: ATOM      5  C   UNL     1      22.419 -19.281  -1.356 -0.66 -0.00    +0.000 C 
DOCKED: BRANCH   5   7
DOCKED: ATOM      6  O   UNL     1      20.592 -17.862  -0.758 -2.32 -0.00    +0.000 OA
DOCKED: ATOM      7  C   UNL     1      21.171 -18.967  -0.582 -0.87 -0.00    +0.000 C 
DOCKED: ATOM      8  N   UNL     1      20.652 -19.902   0.368 -0.69 -0.00    +0.000 N 
DOCKED: ATOM      9  H   UNL     1      21.104 -20.767   0.497 -0.51 -0.00    +0.000 HD
DOCKED: BRANCH   8  10
DOCKED: ATOM     10  O   UNL     1      19.544 -19.608   1.089 -0.76 -0.00    +0.000 OA
DOCKED: ATOM     11  H   UNL     1      19.303 -18.680   0.946 -0.30 -0.00    +0.000 HD
DOCKED: ENDBRANCH   8  10
DOCKED: ENDBRANCH   5   7
DOCKED: ENDBRANCH   4   5
DOCKED: ENDBRANCH   3   4
DOCKED: ENDBRANCH   2   3
DOCKED: ENDBRANCH   1   2
DOCKED: BRANCH   1  12
DOCKED: ATOM     12  C   UNL     1      25.409 -15.487  -2.726 -0.52 -0.00    +0.000 C 
DOCKED: BRANCH  12  13
DOCKED: ATOM     13  C   UNL     1      26.141 -15.452  -4.036 -0.56 -0.00    +0.000 C 
DOCKED: ATOM     14  N   UNL     1      27.423 -14.810  -4.127 -0.32 -0.00    +0.000 N 
DOCKED: ATOM     15  O   UNL     1      25.616 -15.982  -5.052 -0.99 -0.00    +0.000 OA
DOCKED: ATOM     16  H   UNL     1      27.938 -14.689  -3.297 +0.00 -0.00    +0.000 HD
DOCKED: BRANCH  14  17
DOCKED: ATOM     17  C   UNL     1      28.001 -14.335  -5.355 -0.32 -0.00    +0.000 A 
DOCKED: ATOM     18  C   UNL     1      29.032 -15.065  -5.963 -0.34 -0.00    +0.000 A 
DOCKED: ATOM     19  C   UNL     1      29.623 -14.598  -7.137 -0.28 -0.00    +0.000 A 
DOCKED: ATOM     20  C   UNL     1      29.189 -13.393  -7.689 -0.23 -0.00    +0.000 A 
DOCKED: ATOM     21  N   UNL     1      28.206 -12.680  -7.078 -0.24 -0.00    +0.000 NA
DOCKED: ATOM     22  C   UNL     1      27.611 -13.115  -5.935 -0.16 -0.00    +0.000 A 
DOCKED: ENDBRANCH  14  17
DOCKED: ENDBRANCH  12  13
DOCKED: ENDBRANCH   1  12
DOCKED: TORSDOF 9
DOCKED: TER
DOCKED: ENDMDL
________________________________________________________________________________


	BEGINNING GENETIC ALGORITHM DOCKING 58 of 100
Run: 58 Seed: 127687629 660870121 [ Run 58 of 100 GA/GALS ]
Beginning LAMARCKIAN GENETIC ALGORITHM (LGA), with a maximum of 2500000 energy evaluations.

Final-Value: -14.009


	FINAL GENETIC ALGORITHM DOCKED STATE
	_______________________________________________


Detailed state:  trans 26.662 -18.537 -2.573 quatxyzw -0.513219 0.412508 -0.703179 0.268296 center -0.121 -0.193 0.463 ntor 9 -133.4240 -178.1316 -79.3499 23.7124 165.3253 14.2770 10.3505 19.4820 -160.2582
State:	 26.662 -18.537  -2.573  -0.533  0.428 -0.730 148.874   -133.42 -178.13  -79.35   23.71  165.33   14.28   10.35   19.48 -160.26

DOCKED: MODEL       58
DOCKED: USER    Run = 58
DOCKED: USER    DPF = ligand_dock.biased.dpf
DOCKED: USER  
DOCKED: USER    Estimated Free Energy of Binding    =  -10.53 kcal/mol  [=(1)+(2)+(3)-(4)]
DOCKED: USER    Estimated Inhibition Constant, Ki   =   18.99 nM (nanomolar)  [Temperature = 298.15 K]
DOCKED: USER    
DOCKED: USER    (1) Final Intermolecular Energy     =  -13.22 kcal/mol
DOCKED: USER        vdW + Hbond + desolv Energy     =  -13.22 kcal/mol
DOCKED: USER        Electrostatic Energy            =   +0.00 kcal/mol
DOCKED: USER    (2) Final Total Internal Energy     =   -0.79 kcal/mol
DOCKED: USER    (3) Torsional Free Energy           =   +2.68 kcal/mol
DOCKED: USER    (4) Unbound System's Energy  [=(2)] =   -0.79 kcal/mol
DOCKED: USER    
DOCKED: USER    
DOCKED: USER    NEWDPF move ligand.pdbqt
DOCKED: USER    NEWDPF about -0.121000 -0.193000 0.463000
DOCKED: USER    NEWDPF tran0 26.661692 -18.536848 -2.573282
DOCKED: USER    NEWDPF quaternion0 -0.513219 0.412508 -0.703179 0.268296
DOCKED: USER    NEWDPF axisangle0 -0.532752 0.428208 -0.729941 148.874233
DOCKED: USER    NEWDPF quat0 -0.532752 0.428208 -0.729941 148.874233
DOCKED: USER    NEWDPF dihe0 -133.42 -178.13 -79.35 23.71 165.33 14.28 10.35 19.48 -160.26 
DOCKED: USER  keepresnum = 1 
DOCKED: USER  
DOCKED: REMARK  Name = 
DOCKED: REMARK  9 active torsions:
DOCKED: REMARK  status: ('A' for Active; 'I' for Inactive)
DOCKED: REMARK    1  A    between atoms: C_2  and  C_5
DOCKED: REMARK    2  A    between atoms: N_3  and  O_4
DOCKED: REMARK    3  A    between atoms: C_5  and  C_6
DOCKED: REMARK    4  A    between atoms: C_6  and  C_7
DOCKED: REMARK    5  A    between atoms: C_7  and  C_8
DOCKED: REMARK    6  A    between atoms: C_8  and  C_9
DOCKED: REMARK    7  A    between atoms: C_9  and  C_10
DOCKED: REMARK    8  A    between atoms: C_10  and  C_11
DOCKED: REMARK    9  A    between atoms: N_12  and  C_13
DOCKED: REMARK                            x       y       z     vdW  Elec       q    Type
DOCKED: REMARK                         _______ _______ _______ _____ _____    ______ ____
DOCKED: USER                              x       y       z     vdW  Elec       q    Type
DOCKED: USER                           _______ _______ _______ _____ _____    ______ ____
DOCKED: ROOT
DOCKED: ATOM      1  C   UNL     1      25.441 -15.590  -2.196 -0.51 -0.00    +0.000 C 
DOCKED: ENDROOT
DOCKED: BRANCH   1   2
DOCKED: ATOM      2  C   UNL     1      24.759 -16.953  -2.002 -0.61 -0.00    +0.000 C 
DOCKED: BRANCH   2   3
DOCKED: ATOM      3  C   UNL     1      24.241 -17.111  -0.565 -0.61 -0.00    +0.000 C 
DOCKED: BRANCH   3   4
DOCKED: ATOM      4  C   UNL     1      23.733 -18.533  -0.268 -0.75 -0.00    +0.000 C 
DOCKED: BRANCH   4   5
DOCKED: ATOM      5  C   UNL     1      22.323 -18.590   0.343 -0.62 -0.00    +0.000 C 
DOCKED: BRANCH   5   7
DOCKED: ATOM      6  O   UNL     1      20.624 -17.494  -0.931 -2.10 -0.00    +0.000 OA
DOCKED: ATOM      7  C   UNL     1      21.251 -18.565  -0.708 -0.85 -0.00    +0.000 C 
DOCKED: ATOM      8  N   UNL     1      20.922 -19.750  -1.437 -0.75 -0.00    +0.000 N 
DOCKED: ATOM      9  H   UNL     1      21.418 -20.582  -1.264 -0.14 -0.00    +0.000 HD
DOCKED: BRANCH   8  10
DOCKED: ATOM     10  O   UNL     1      19.934 -19.738  -2.363 -1.77 -0.00    +0.000 OA
DOCKED: ATOM     11  H   UNL     1      19.360 -20.509  -2.234 -0.53 -0.00    +0.000 HD
DOCKED: ENDBRANCH   8  10
DOCKED: ENDBRANCH   5   7
DOCKED: ENDBRANCH   4   5
DOCKED: ENDBRANCH   3   4
DOCKED: ENDBRANCH   2   3
DOCKED: ENDBRANCH   1   2
DOCKED: BRANCH   1  12
DOCKED: ATOM     12  C   UNL     1      25.763 -15.308  -3.670 -0.58 -0.00    +0.000 C 
DOCKED: BRANCH  12  13
DOCKED: ATOM     13  C   UNL     1      25.265 -13.955  -4.090 -0.50 -0.00    +0.000 C 
DOCKED: ATOM     14  N   UNL     1      26.199 -12.920  -4.437 -0.33 -0.00    +0.000 N 
DOCKED: ATOM     15  O   UNL     1      24.024 -13.737  -4.126 -1.04 -0.00    +0.000 OA
DOCKED: ATOM     16  H   UNL     1      27.108 -13.188  -4.700 -0.01 -0.00    +0.000 HD
DOCKED: BRANCH  14  17
DOCKED: ATOM     17  C   UNL     1      25.887 -11.516  -4.425 -0.28 -0.00    +0.000 A 
DOCKED: ATOM     18  C   UNL     1      26.705 -10.632  -3.707 -0.14 -0.00    +0.000 A 
DOCKED: ATOM     19  C   UNL     1      26.395  -9.272  -3.661 -0.14 -0.00    +0.000 A 
DOCKED: ATOM     20  C   UNL     1      25.258  -8.807  -4.321 -0.22 -0.00    +0.000 A 
DOCKED: ATOM     21  N   UNL     1      24.458  -9.676  -4.994 -0.36 -0.00    +0.000 NA
DOCKED: ATOM     22  C   UNL     1      24.740 -11.005  -5.058 -0.38 -0.00    +0.000 A 
DOCKED: ENDBRANCH  14  17
DOCKED: ENDBRANCH  12  13
DOCKED: ENDBRANCH   1  12
DOCKED: TORSDOF 9
DOCKED: TER
DOCKED: ENDMDL
________________________________________________________________________________


	BEGINNING GENETIC ALGORITHM DOCKING 59 of 100
Run: 59 Seed: 1735190303 1635731846 [ Run 59 of 100 GA/GALS ]
Beginning LAMARCKIAN GENETIC ALGORITHM (LGA), with a maximum of 2500000 energy evaluations.

Final-Value: -15.391


	FINAL GENETIC ALGORITHM DOCKED STATE
	_______________________________________________


Detailed state:  trans 23.985 -15.067 1.365 quatxyzw -0.482345 0.024096 0.855660 -0.186033 center -0.121 -0.193 0.463 ntor 9 -3.4818 -179.5479 0.0507 93.0890 -140.0400 19.4258 119.4720 94.3532 -46.4319
State:	 23.985 -15.067   1.365  -0.491  0.025  0.871 -158.557     -3.48 -179.55    0.05   93.09 -140.04   19.43  119.47   94.35  -46.43

DOCKED: MODEL       59
DOCKED: USER    Run = 59
DOCKED: USER    DPF = ligand_dock.biased.dpf
DOCKED: USER  
DOCKED: USER    Estimated Free Energy of Binding    =  -11.47 kcal/mol  [=(1)+(2)+(3)-(4)]
DOCKED: USER    Estimated Inhibition Constant, Ki   =    3.91 nM (nanomolar)  [Temperature = 298.15 K]
DOCKED: USER    
DOCKED: USER    (1) Final Intermolecular Energy     =  -14.16 kcal/mol
DOCKED: USER        vdW + Hbond + desolv Energy     =  -14.16 kcal/mol
DOCKED: USER        Electrostatic Energy            =   +0.00 kcal/mol
DOCKED: USER    (2) Final Total Internal Energy     =   -1.24 kcal/mol
DOCKED: USER    (3) Torsional Free Energy           =   +2.68 kcal/mol
DOCKED: USER    (4) Unbound System's Energy  [=(2)] =   -1.24 kcal/mol
DOCKED: USER    
DOCKED: USER    
DOCKED: USER    NEWDPF move ligand.pdbqt
DOCKED: USER    NEWDPF about -0.121000 -0.193000 0.463000
DOCKED: USER    NEWDPF tran0 23.985281 -15.066640 1.365065
DOCKED: USER    NEWDPF quaternion0 -0.482345 0.024096 0.855660 -0.186033
DOCKED: USER    NEWDPF axisangle0 -0.490915 0.024524 0.870862 -158.557237
DOCKED: USER    NEWDPF quat0 -0.490915 0.024524 0.870862 -158.557237
DOCKED: USER    NEWDPF dihe0 -3.48 -179.55 0.05 93.09 -140.04 19.43 119.47 94.35 -46.43 
DOCKED: USER  keepresnum = 1 
DOCKED: USER  
DOCKED: REMARK  Name = 
DOCKED: REMARK  9 active torsions:
DOCKED: REMARK  status: ('A' for Active; 'I' for Inactive)
DOCKED: REMARK    1  A    between atoms: C_2  and  C_5
DOCKED: REMARK    2  A    between atoms: N_3  and  O_4
DOCKED: REMARK    3  A    between atoms: C_5  and  C_6
DOCKED: REMARK    4  A    between atoms: C_6  and  C_7
DOCKED: REMARK    5  A    between atoms: C_7  and  C_8
DOCKED: REMARK    6  A    between atoms: C_8  and  C_9
DOCKED: REMARK    7  A    between atoms: C_9  and  C_10
DOCKED: REMARK    8  A    between atoms: C_10  and  C_11
DOCKED: REMARK    9  A    between atoms: N_12  and  C_13
DOCKED: REMARK                            x       y       z     vdW  Elec       q    Type
DOCKED: REMARK                         _______ _______ _______ _____ _____    ______ ____
DOCKED: USER                              x       y       z     vdW  Elec       q    Type
DOCKED: USER                           _______ _______ _______ _____ _____    ______ ____
DOCKED: ROOT
DOCKED: ATOM      1  C   UNL     1      26.437 -14.953  -0.707 -0.36 -0.00    +0.000 C 
DOCKED: ENDROOT
DOCKED: BRANCH   1   2
DOCKED: ATOM      2  C   UNL     1      25.116 -15.732  -0.810 -0.31 -0.00    +0.000 C 
DOCKED: BRANCH   2   3
DOCKED: ATOM      3  C   UNL     1      25.372 -17.205  -1.162 -0.64 -0.00    +0.000 C 
DOCKED: BRANCH   3   4
DOCKED: ATOM      4  C   UNL     1      24.094 -17.944  -1.596 -0.71 -0.00    +0.000 C 
DOCKED: BRANCH   4   5
DOCKED: ATOM      5  C   UNL     1      23.129 -18.273  -0.445 -0.82 -0.00    +0.000 C 
DOCKED: BRANCH   5   7
DOCKED: ATOM      6  O   UNL     1      20.891 -17.478  -0.709 -2.07 -0.00    +0.000 OA
DOCKED: ATOM      7  C   UNL     1      21.711 -18.412  -0.919 -0.80 -0.00    +0.000 C 
DOCKED: ATOM      8  N   UNL     1      21.281 -19.604  -1.583 -0.64 -0.00    +0.000 N 
DOCKED: ATOM      9  H   UNL     1      21.926 -20.328  -1.750 -0.41 -0.00    +0.000 HD
DOCKED: BRANCH   8  10
DOCKED: ATOM     10  O   UNL     1      19.995 -19.743  -1.983 -1.88 -0.00    +0.000 OA
DOCKED: ATOM     11  H   UNL     1      19.482 -18.972  -1.697 -0.32 -0.00    +0.000 HD
DOCKED: ENDBRANCH   8  10
DOCKED: ENDBRANCH   5   7
DOCKED: ENDBRANCH   4   5
DOCKED: ENDBRANCH   3   4
DOCKED: ENDBRANCH   2   3
DOCKED: ENDBRANCH   1   2
DOCKED: BRANCH   1  12
DOCKED: ATOM     12  C   UNL     1      27.349 -15.501   0.398 -0.31 -0.00    +0.000 C 
DOCKED: BRANCH  12  13
DOCKED: ATOM     13  C   UNL     1      27.577 -14.480   1.476 -0.26 -0.00    +0.000 C 
DOCKED: ATOM     14  N   UNL     1      28.541 -14.731   2.512 -0.08 -0.00    +0.000 N 
DOCKED: ATOM     15  O   UNL     1      26.910 -13.410   1.466 -0.35 -0.00    +0.000 OA
DOCKED: ATOM     16  H   UNL     1      29.246 -15.394   2.335 -1.91 -0.00    +0.000 HD
DOCKED: BRANCH  14  17
DOCKED: ATOM     17  C   UNL     1      28.538 -14.072   3.790 -0.39 -0.00    +0.000 A 
DOCKED: ATOM     18  C   UNL     1      29.740 -13.933   4.499 -0.31 -0.00    +0.000 A 
DOCKED: ATOM     19  C   UNL     1      29.746 -13.325   5.755 -0.30 -0.00    +0.000 A 
DOCKED: ATOM     20  C   UNL     1      28.545 -12.872   6.302 -0.39 -0.00    +0.000 A 
DOCKED: ATOM     21  N   UNL     1      27.382 -13.035   5.617 -0.44 +0.00    +0.000 NA
DOCKED: ATOM     22  C   UNL     1      27.349 -13.620   4.390 -0.44 -0.00    +0.000 A 
DOCKED: ENDBRANCH  14  17
DOCKED: ENDBRANCH  12  13
DOCKED: ENDBRANCH   1  12
DOCKED: TORSDOF 9
DOCKED: TER
DOCKED: ENDMDL
________________________________________________________________________________


	BEGINNING GENETIC ALGORITHM DOCKING 60 of 100
Run: 60 Seed: 1903017957 542670982 [ Run 60 of 100 GA/GALS ]
Beginning LAMARCKIAN GENETIC ALGORITHM (LGA), with a maximum of 2500000 energy evaluations.

Final-Value: -13.479


	FINAL GENETIC ALGORITHM DOCKED STATE
	_______________________________________________


Detailed state:  trans 23.330 -16.261 -3.705 quatxyzw -0.392216 0.735001 0.095450 0.544820 center -0.121 -0.193 0.463 ntor 9 -18.7682 -161.8811 14.4460 57.7587 151.5047 93.7774 4.8397 32.8988 -116.2734
State:	 23.330 -16.261  -3.705  -0.468  0.877  0.114 113.975    -18.77 -161.88   14.45   57.76  151.50   93.78    4.84   32.90 -116.27

DOCKED: MODEL       60
DOCKED: USER    Run = 60
DOCKED: USER    DPF = ligand_dock.biased.dpf
DOCKED: USER  
DOCKED: USER    Estimated Free Energy of Binding    =   -9.64 kcal/mol  [=(1)+(2)+(3)-(4)]
DOCKED: USER    Estimated Inhibition Constant, Ki   =   85.43 nM (nanomolar)  [Temperature = 298.15 K]
DOCKED: USER    
DOCKED: USER    (1) Final Intermolecular Energy     =  -12.33 kcal/mol
DOCKED: USER        vdW + Hbond + desolv Energy     =  -12.33 kcal/mol
DOCKED: USER        Electrostatic Energy            =   +0.00 kcal/mol
DOCKED: USER    (2) Final Total Internal Energy     =   -1.15 kcal/mol
DOCKED: USER    (3) Torsional Free Energy           =   +2.68 kcal/mol
DOCKED: USER    (4) Unbound System's Energy  [=(2)] =   -1.15 kcal/mol
DOCKED: USER    
DOCKED: USER    
DOCKED: USER    NEWDPF move ligand.pdbqt
DOCKED: USER    NEWDPF about -0.121000 -0.193000 0.463000
DOCKED: USER    NEWDPF tran0 23.330223 -16.261012 -3.704911
DOCKED: USER    NEWDPF quaternion0 -0.392216 0.735001 0.095450 0.544820
DOCKED: USER    NEWDPF axisangle0 -0.467729 0.876512 0.113827 113.975255
DOCKED: USER    NEWDPF quat0 -0.467729 0.876512 0.113827 113.975255
DOCKED: USER    NEWDPF dihe0 -18.77 -161.88 14.45 57.76 151.50 93.78 4.84 32.90 -116.27 
DOCKED: USER  keepresnum = 1 
DOCKED: USER  
DOCKED: REMARK  Name = 
DOCKED: REMARK  9 active torsions:
DOCKED: REMARK  status: ('A' for Active; 'I' for Inactive)
DOCKED: REMARK    1  A    between atoms: C_2  and  C_5
DOCKED: REMARK    2  A    between atoms: N_3  and  O_4
DOCKED: REMARK    3  A    between atoms: C_5  and  C_6
DOCKED: REMARK    4  A    between atoms: C_6  and  C_7
DOCKED: REMARK    5  A    between atoms: C_7  and  C_8
DOCKED: REMARK    6  A    between atoms: C_8  and  C_9
DOCKED: REMARK    7  A    between atoms: C_9  and  C_10
DOCKED: REMARK    8  A    between atoms: C_10  and  C_11
DOCKED: REMARK    9  A    between atoms: N_12  and  C_13
DOCKED: REMARK                            x       y       z     vdW  Elec       q    Type
DOCKED: REMARK                         _______ _______ _______ _____ _____    ______ ____
DOCKED: USER                              x       y       z     vdW  Elec       q    Type
DOCKED: USER                           _______ _______ _______ _____ _____    ______ ____
DOCKED: ROOT
DOCKED: ATOM      1  C   UNL     1      26.278 -16.242  -2.430 -0.47 -0.00    +0.000 C 
DOCKED: ENDROOT
DOCKED: BRANCH   1   2
DOCKED: ATOM      2  C   UNL     1      24.924 -16.004  -1.744 -0.49 -0.00    +0.000 C 
DOCKED: BRANCH   2   3
DOCKED: ATOM      3  C   UNL     1      24.625 -17.107  -0.718 -0.66 -0.00    +0.000 C 
DOCKED: BRANCH   3   4
DOCKED: ATOM      4  C   UNL     1      23.816 -18.272  -1.316 -0.78 -0.00    +0.000 C 
DOCKED: BRANCH   4   5
DOCKED: ATOM      5  C   UNL     1      22.767 -18.872  -0.364 -0.80 -0.00    +0.000 C 
DOCKED: BRANCH   5   7
DOCKED: ATOM      6  O   UNL     1      20.717 -17.694  -0.710 -2.21 -0.00    +0.000 OA
DOCKED: ATOM      7  C   UNL     1      21.374 -18.750  -0.910 -0.84 -0.00    +0.000 C 
DOCKED: ATOM      8  N   UNL     1      20.782 -19.833  -1.633 -0.69 -0.00    +0.000 N 
DOCKED: ATOM      9  H   UNL     1      21.301 -20.654  -1.794 -0.27 -0.00    +0.000 HD
DOCKED: BRANCH   8  10
DOCKED: ATOM     10  O   UNL     1      19.514 -19.738  -2.100 -1.56 -0.00    +0.000 OA
DOCKED: ATOM     11  H   UNL     1      19.048 -19.031  -1.627 -0.56 -0.00    +0.000 HD
DOCKED: ENDBRANCH   8  10
DOCKED: ENDBRANCH   5   7
DOCKED: ENDBRANCH   4   5
DOCKED: ENDBRANCH   3   4
DOCKED: ENDBRANCH   2   3
DOCKED: ENDBRANCH   1   2
DOCKED: BRANCH   1  12
DOCKED: ATOM     12  C   UNL     1      26.648 -15.106  -3.393 -0.45 -0.00    +0.000 C 
DOCKED: BRANCH  12  13
DOCKED: ATOM     13  C   UNL     1      28.038 -15.277  -3.935 -0.32 -0.00    +0.000 C 
DOCKED: ATOM     14  N   UNL     1      28.263 -15.264  -5.354 -0.39 -0.00    +0.000 N 
DOCKED: ATOM     15  O   UNL     1      28.998 -15.441  -3.135 -0.19 -0.00    +0.000 OA
DOCKED: ATOM     16  H   UNL     1      27.585 -14.836  -5.925 -0.04 +0.00    +0.000 HD
DOCKED: BRANCH  14  17
DOCKED: ATOM     17  C   UNL     1      29.418 -15.835  -5.991 -0.32 -0.00    +0.000 A 
DOCKED: ATOM     18  C   UNL     1      30.029 -15.156  -7.055 -0.28 -0.00    +0.000 A 
DOCKED: ATOM     19  C   UNL     1      31.131 -15.716  -7.703 -0.24 -0.00    +0.000 A 
DOCKED: ATOM     20  C   UNL     1      31.607 -16.961  -7.292 -0.22 -0.00    +0.000 A 
DOCKED: ATOM     21  N   UNL     1      30.992 -17.623  -6.276 -0.26 -0.00    +0.000 NA
DOCKED: ATOM     22  C   UNL     1      29.919 -17.098  -5.626 -0.29 -0.00    +0.000 A 
DOCKED: ENDBRANCH  14  17
DOCKED: ENDBRANCH  12  13
DOCKED: ENDBRANCH   1  12
DOCKED: TORSDOF 9
DOCKED: TER
DOCKED: ENDMDL
________________________________________________________________________________


	BEGINNING GENETIC ALGORITHM DOCKING 61 of 100
Run: 61 Seed: 649302883 1240900083 [ Run 61 of 100 GA/GALS ]
Beginning LAMARCKIAN GENETIC ALGORITHM (LGA), with a maximum of 2500000 energy evaluations.

Final-Value: -13.792


	FINAL GENETIC ALGORITHM DOCKED STATE
	_______________________________________________


Detailed state:  trans 25.470 -18.362 -3.363 quatxyzw 0.499480 -0.574129 0.514750 -0.394878 center -0.121 -0.193 0.463 ntor 9 -9.5158 -179.6729 -176.7293 59.4338 -170.7280 21.6235 -30.9418 69.7879 -59.4455
State:	 25.470 -18.362  -3.363   0.544 -0.625  0.560 -133.483     -9.52 -179.67 -176.73   59.43 -170.73   21.62  -30.94   69.79  -59.45

DOCKED: MODEL       61
DOCKED: USER    Run = 61
DOCKED: USER    DPF = ligand_dock.biased.dpf
DOCKED: USER  
DOCKED: USER    Estimated Free Energy of Binding    =   -9.88 kcal/mol  [=(1)+(2)+(3)-(4)]
DOCKED: USER    Estimated Inhibition Constant, Ki   =   56.91 nM (nanomolar)  [Temperature = 298.15 K]
DOCKED: USER    
DOCKED: USER    (1) Final Intermolecular Energy     =  -12.57 kcal/mol
DOCKED: USER        vdW + Hbond + desolv Energy     =  -12.57 kcal/mol
DOCKED: USER        Electrostatic Energy            =   +0.00 kcal/mol
DOCKED: USER    (2) Final Total Internal Energy     =   -1.22 kcal/mol
DOCKED: USER    (3) Torsional Free Energy           =   +2.68 kcal/mol
DOCKED: USER    (4) Unbound System's Energy  [=(2)] =   -1.22 kcal/mol
DOCKED: USER    
DOCKED: USER    
DOCKED: USER    NEWDPF move ligand.pdbqt
DOCKED: USER    NEWDPF about -0.121000 -0.193000 0.463000
DOCKED: USER    NEWDPF tran0 25.469695 -18.362284 -3.363167
DOCKED: USER    NEWDPF quaternion0 0.499480 -0.574129 0.514750 -0.394878
DOCKED: USER    NEWDPF axisangle0 0.543661 -0.624913 0.560282 -133.483299
DOCKED: USER    NEWDPF quat0 0.543661 -0.624913 0.560282 -133.483299
DOCKED: USER    NEWDPF dihe0 -9.52 -179.67 -176.73 59.43 -170.73 21.62 -30.94 69.79 -59.45 
DOCKED: USER  keepresnum = 1 
DOCKED: USER  
DOCKED: REMARK  Name = 
DOCKED: REMARK  9 active torsions:
DOCKED: REMARK  status: ('A' for Active; 'I' for Inactive)
DOCKED: REMARK    1  A    between atoms: C_2  and  C_5
DOCKED: REMARK    2  A    between atoms: N_3  and  O_4
DOCKED: REMARK    3  A    between atoms: C_5  and  C_6
DOCKED: REMARK    4  A    between atoms: C_6  and  C_7
DOCKED: REMARK    5  A    between atoms: C_7  and  C_8
DOCKED: REMARK    6  A    between atoms: C_8  and  C_9
DOCKED: REMARK    7  A    between atoms: C_9  and  C_10
DOCKED: REMARK    8  A    between atoms: C_10  and  C_11
DOCKED: REMARK    9  A    between atoms: N_12  and  C_13
DOCKED: REMARK                            x       y       z     vdW  Elec       q    Type
DOCKED: REMARK                         _______ _______ _______ _____ _____    ______ ____
DOCKED: USER                              x       y       z     vdW  Elec       q    Type
DOCKED: USER                           _______ _______ _______ _____ _____    ______ ____
DOCKED: ROOT
DOCKED: ATOM      1  C   UNL     1      25.809 -15.410  -2.145 -0.48 -0.00    +0.000 C 
DOCKED: ENDROOT
DOCKED: BRANCH   1   2
DOCKED: ATOM      2  C   UNL     1      24.605 -16.361  -2.058 -0.44 -0.00    +0.000 C 
DOCKED: BRANCH   2   3
DOCKED: ATOM      3  C   UNL     1      24.826 -17.432  -0.980 -0.70 -0.00    +0.000 C 
DOCKED: BRANCH   3   4
DOCKED: ATOM      4  C   UNL     1      23.850 -18.616  -1.108 -0.79 -0.00    +0.000 C 
DOCKED: BRANCH   4   5
DOCKED: ATOM      5  C   UNL     1      22.719 -18.623  -0.067 -0.77 -0.00    +0.000 C 
DOCKED: BRANCH   5   7
DOCKED: ATOM      6  O   UNL     1      20.705 -17.510  -0.712 -2.10 +0.00    +0.000 OA
DOCKED: ATOM      7  C   UNL     1      21.362 -18.586  -0.707 -0.87 -0.00    +0.000 C 
DOCKED: ATOM      8  N   UNL     1      20.800 -19.767  -1.286 -0.77 -0.00    +0.000 N 
DOCKED: ATOM      9  H   UNL     1      21.319 -20.603  -1.286 -0.15 -0.00    +0.000 HD
DOCKED: BRANCH   8  10
DOCKED: ATOM     10  O   UNL     1      19.563 -19.743  -1.836 -1.70 -0.00    +0.000 OA
DOCKED: ATOM     11  H   UNL     1      19.132 -18.901  -1.626 -0.56 -0.00    +0.000 HD
DOCKED: ENDBRANCH   8  10
DOCKED: ENDBRANCH   5   7
DOCKED: ENDBRANCH   4   5
DOCKED: ENDBRANCH   3   4
DOCKED: ENDBRANCH   2   3
DOCKED: ENDBRANCH   1   2
DOCKED: BRANCH   1  12
DOCKED: ATOM     12  C   UNL     1      26.033 -14.887  -3.570 -0.52 -0.00    +0.000 C 
DOCKED: BRANCH  12  13
DOCKED: ATOM     13  C   UNL     1      27.461 -15.066  -4.000 -0.38 -0.00    +0.000 C 
DOCKED: ATOM     14  N   UNL     1      27.810 -14.976  -5.391 -0.42 -0.00    +0.000 N 
DOCKED: ATOM     15  O   UNL     1      28.343 -15.302  -3.132 -0.23 -0.00    +0.000 OA
DOCKED: ATOM     16  H   UNL     1      27.194 -14.498  -5.991 -0.04 -0.00    +0.000 HD
DOCKED: BRANCH  14  17
DOCKED: ATOM     17  C   UNL     1      29.003 -15.542  -5.960 -0.34 -0.00    +0.000 A 
DOCKED: ATOM     18  C   UNL     1      29.566 -16.690  -5.385 -0.27 -0.00    +0.000 A 
DOCKED: ATOM     19  C   UNL     1      30.742 -17.231  -5.908 -0.27 -0.00    +0.000 A 
DOCKED: ATOM     20  C   UNL     1      31.356 -16.609  -6.995 -0.23 -0.00    +0.000 A 
DOCKED: ATOM     21  N   UNL     1      30.816 -15.482  -7.529 -0.27 -0.00    +0.000 NA
DOCKED: ATOM     22  C   UNL     1      29.669 -14.938  -7.041 -0.28 -0.00    +0.000 A 
DOCKED: ENDBRANCH  14  17
DOCKED: ENDBRANCH  12  13
DOCKED: ENDBRANCH   1  12
DOCKED: TORSDOF 9
DOCKED: TER
DOCKED: ENDMDL
________________________________________________________________________________


	BEGINNING GENETIC ALGORITHM DOCKING 62 of 100
Run: 62 Seed: 1695922803 859198190 [ Run 62 of 100 GA/GALS ]
Beginning LAMARCKIAN GENETIC ALGORITHM (LGA), with a maximum of 2500000 energy evaluations.

Final-Value: -14.238


	FINAL GENETIC ALGORITHM DOCKED STATE
	_______________________________________________


Detailed state:  trans 26.257 -18.658 -1.017 quatxyzw -0.441879 0.315198 -0.555077 0.630304 center -0.121 -0.193 0.463 ntor 9 1.1235 -105.2902 -176.4590 179.7523 169.5553 14.6388 168.1311 -11.9515 -173.8197
State:	 26.257 -18.658  -1.017  -0.569  0.406 -0.715 101.855      1.12 -105.29 -176.46  179.75  169.56   14.64  168.13  -11.95 -173.82

DOCKED: MODEL       62
DOCKED: USER    Run = 62
DOCKED: USER    DPF = ligand_dock.biased.dpf
DOCKED: USER  
DOCKED: USER    Estimated Free Energy of Binding    =  -10.21 kcal/mol  [=(1)+(2)+(3)-(4)]
DOCKED: USER    Estimated Inhibition Constant, Ki   =   32.71 nM (nanomolar)  [Temperature = 298.15 K]
DOCKED: USER    
DOCKED: USER    (1) Final Intermolecular Energy     =  -12.90 kcal/mol
DOCKED: USER        vdW + Hbond + desolv Energy     =  -12.90 kcal/mol
DOCKED: USER        Electrostatic Energy            =   +0.00 kcal/mol
DOCKED: USER    (2) Final Total Internal Energy     =   -1.34 kcal/mol
DOCKED: USER    (3) Torsional Free Energy           =   +2.68 kcal/mol
DOCKED: USER    (4) Unbound System's Energy  [=(2)] =   -1.34 kcal/mol
DOCKED: USER    
DOCKED: USER    
DOCKED: USER    NEWDPF move ligand.pdbqt
DOCKED: USER    NEWDPF about -0.121000 -0.193000 0.463000
DOCKED: USER    NEWDPF tran0 26.256803 -18.657847 -1.017167
DOCKED: USER    NEWDPF quaternion0 -0.441879 0.315198 -0.555077 0.630304
DOCKED: USER    NEWDPF axisangle0 -0.569176 0.406001 -0.714984 101.854945
DOCKED: USER    NEWDPF quat0 -0.569176 0.406001 -0.714984 101.854945
DOCKED: USER    NEWDPF dihe0 1.12 -105.29 -176.46 179.75 169.56 14.64 168.13 -11.95 -173.82 
DOCKED: USER  keepresnum = 1 
DOCKED: USER  
DOCKED: REMARK  Name = 
DOCKED: REMARK  9 active torsions:
DOCKED: REMARK  status: ('A' for Active; 'I' for Inactive)
DOCKED: REMARK    1  A    between atoms: C_2  and  C_5
DOCKED: REMARK    2  A    between atoms: N_3  and  O_4
DOCKED: REMARK    3  A    between atoms: C_5  and  C_6
DOCKED: REMARK    4  A    between atoms: C_6  and  C_7
DOCKED: REMARK    5  A    between atoms: C_7  and  C_8
DOCKED: REMARK    6  A    between atoms: C_8  and  C_9
DOCKED: REMARK    7  A    between atoms: C_9  and  C_10
DOCKED: REMARK    8  A    between atoms: C_10  and  C_11
DOCKED: REMARK    9  A    between atoms: N_12  and  C_13
DOCKED: REMARK                            x       y       z     vdW  Elec       q    Type
DOCKED: REMARK                         _______ _______ _______ _____ _____    ______ ____
DOCKED: USER                              x       y       z     vdW  Elec       q    Type
DOCKED: USER                           _______ _______ _______ _____ _____    ______ ____
DOCKED: ROOT
DOCKED: ATOM      1  C   UNL     1      26.727 -15.596  -1.867 -0.39 -0.00    +0.000 C 
DOCKED: ENDROOT
DOCKED: BRANCH   1   2
DOCKED: ATOM      2  C   UNL     1      25.730 -16.178  -0.854 -0.49 -0.00    +0.000 C 
DOCKED: BRANCH   2   3
DOCKED: ATOM      3  C   UNL     1      24.478 -16.719  -1.561 -0.62 -0.00    +0.000 C 
DOCKED: BRANCH   3   4
DOCKED: ATOM      4  C   UNL     1      23.364 -17.117  -0.577 -0.66 -0.00    +0.000 C 
DOCKED: BRANCH   4   5
DOCKED: ATOM      5  C   UNL     1      22.876 -18.568  -0.724 -0.84 -0.00    +0.000 C 
DOCKED: BRANCH   5   7
DOCKED: ATOM      6  O   UNL     1      20.639 -17.725  -0.708 -2.25 -0.00    +0.000 OA
DOCKED: ATOM      7  C   UNL     1      21.420 -18.640  -1.084 -0.80 -0.00    +0.000 C 
DOCKED: ATOM      8  N   UNL     1      20.911 -19.751  -1.828 -0.68 -0.00    +0.000 N 
DOCKED: ATOM      9  H   UNL     1      21.525 -20.460  -2.125 -0.49 -0.00    +0.000 HD
DOCKED: BRANCH   8  10
DOCKED: ATOM     10  O   UNL     1      19.593 -19.834  -2.127 -1.58 -0.00    +0.000 OA
DOCKED: ATOM     11  H   UNL     1      19.133 -19.054  -1.781 -0.56 -0.00    +0.000 HD
DOCKED: ENDBRANCH   8  10
DOCKED: ENDBRANCH   5   7
DOCKED: ENDBRANCH   4   5
DOCKED: ENDBRANCH   3   4
DOCKED: ENDBRANCH   2   3
DOCKED: ENDBRANCH   1   2
DOCKED: BRANCH   1  12
DOCKED: ATOM     12  C   UNL     1      26.378 -15.982  -3.311 -0.40 -0.00    +0.000 C 
DOCKED: BRANCH  12  13
DOCKED: ATOM     13  C   UNL     1      26.033 -14.773  -4.132 -0.56 -0.00    +0.000 C 
DOCKED: ATOM     14  N   UNL     1      27.078 -13.970  -4.704 -0.33 -0.00    +0.000 N 
DOCKED: ATOM     15  O   UNL     1      24.822 -14.469  -4.306 -1.04 -0.00    +0.000 OA
DOCKED: ATOM     16  H   UNL     1      27.964 -14.380  -4.822 -0.01 -0.00    +0.000 HD
DOCKED: BRANCH  14  17
DOCKED: ATOM     17  C   UNL     1      26.908 -12.602  -5.116 -0.22 -0.00    +0.000 A 
DOCKED: ATOM     18  C   UNL     1      25.975 -11.791  -4.455 -0.29 -0.00    +0.000 A 
DOCKED: ATOM     19  C   UNL     1      25.778 -10.472  -4.865 -0.25 -0.00    +0.000 A 
DOCKED: ATOM     20  C   UNL     1      26.507  -9.976  -5.946 -0.13 -0.00    +0.000 A 
DOCKED: ATOM     21  N   UNL     1      27.391 -10.778  -6.596 -0.13 -0.00    +0.000 NA
DOCKED: ATOM     22  C   UNL     1      27.605 -12.065  -6.213 -0.17 -0.00    +0.000 A 
DOCKED: ENDBRANCH  14  17
DOCKED: ENDBRANCH  12  13
DOCKED: ENDBRANCH   1  12
DOCKED: TORSDOF 9
DOCKED: TER
DOCKED: ENDMDL
________________________________________________________________________________


	BEGINNING GENETIC ALGORITHM DOCKING 63 of 100
Run: 63 Seed: 165946202 615430311 [ Run 63 of 100 GA/GALS ]
Beginning LAMARCKIAN GENETIC ALGORITHM (LGA), with a maximum of 2500000 energy evaluations.

Final-Value: -14.025


	FINAL GENETIC ALGORITHM DOCKED STATE
	_______________________________________________


Detailed state:  trans 23.664 -15.567 -3.156 quatxyzw 0.364092 -0.710838 -0.258197 -0.543581 center -0.121 -0.193 0.463 ntor 9 -20.6090 -124.3349 30.0062 -179.6708 110.9050 23.5848 -15.9006 -176.5916 -80.1552
State:	 23.664 -15.567  -3.156   0.434 -0.847 -0.308 -114.144    -20.61 -124.33   30.01 -179.67  110.91   23.58  -15.90 -176.59  -80.16

DOCKED: MODEL       63
DOCKED: USER    Run = 63
DOCKED: USER    DPF = ligand_dock.biased.dpf
DOCKED: USER  
DOCKED: USER    Estimated Free Energy of Binding    =  -10.23 kcal/mol  [=(1)+(2)+(3)-(4)]
DOCKED: USER    Estimated Inhibition Constant, Ki   =   31.70 nM (nanomolar)  [Temperature = 298.15 K]
DOCKED: USER    
DOCKED: USER    (1) Final Intermolecular Energy     =  -12.92 kcal/mol
DOCKED: USER        vdW + Hbond + desolv Energy     =  -12.92 kcal/mol
DOCKED: USER        Electrostatic Energy            =   +0.00 kcal/mol
DOCKED: USER    (2) Final Total Internal Energy     =   -1.11 kcal/mol
DOCKED: USER    (3) Torsional Free Energy           =   +2.68 kcal/mol
DOCKED: USER    (4) Unbound System's Energy  [=(2)] =   -1.11 kcal/mol
DOCKED: USER    
DOCKED: USER    
DOCKED: USER    NEWDPF move ligand.pdbqt
DOCKED: USER    NEWDPF about -0.121000 -0.193000 0.463000
DOCKED: USER    NEWDPF tran0 23.663603 -15.566665 -3.155680
DOCKED: USER    NEWDPF quaternion0 0.364092 -0.710838 -0.258197 -0.543581
DOCKED: USER    NEWDPF axisangle0 0.433776 -0.846884 -0.307613 -114.144453
DOCKED: USER    NEWDPF quat0 0.433776 -0.846884 -0.307613 -114.144453
DOCKED: USER    NEWDPF dihe0 -20.61 -124.33 30.01 -179.67 110.91 23.58 -15.90 -176.59 -80.16 
DOCKED: USER  keepresnum = 1 
DOCKED: USER  
DOCKED: REMARK  Name = 
DOCKED: REMARK  9 active torsions:
DOCKED: REMARK  status: ('A' for Active; 'I' for Inactive)
DOCKED: REMARK    1  A    between atoms: C_2  and  C_5
DOCKED: REMARK    2  A    between atoms: N_3  and  O_4
DOCKED: REMARK    3  A    between atoms: C_5  and  C_6
DOCKED: REMARK    4  A    between atoms: C_6  and  C_7
DOCKED: REMARK    5  A    between atoms: C_7  and  C_8
DOCKED: REMARK    6  A    between atoms: C_8  and  C_9
DOCKED: REMARK    7  A    between atoms: C_9  and  C_10
DOCKED: REMARK    8  A    between atoms: C_10  and  C_11
DOCKED: REMARK    9  A    between atoms: N_12  and  C_13
DOCKED: REMARK                            x       y       z     vdW  Elec       q    Type
DOCKED: REMARK                         _______ _______ _______ _____ _____    ______ ____
DOCKED: USER                              x       y       z     vdW  Elec       q    Type
DOCKED: USER                           _______ _______ _______ _____ _____    ______ ____
DOCKED: ROOT
DOCKED: ATOM      1  C   UNL     1      26.691 -16.370  -2.443 -0.39 -0.00    +0.000 C 
DOCKED: ENDROOT
DOCKED: BRANCH   1   2
DOCKED: ATOM      2  C   UNL     1      25.524 -16.054  -1.495 -0.54 -0.00    +0.000 C 
DOCKED: BRANCH   2   3
DOCKED: ATOM      3  C   UNL     1      24.804 -17.338  -1.061 -0.69 -0.00    +0.000 C 
DOCKED: BRANCH   3   4
DOCKED: ATOM      4  C   UNL     1      23.404 -17.069  -0.481 -0.59 -0.00    +0.000 C 
DOCKED: BRANCH   4   5
DOCKED: ATOM      5  C   UNL     1      22.618 -18.336  -0.102 -0.80 -0.00    +0.000 C 
DOCKED: BRANCH   5   7
DOCKED: ATOM      6  O   UNL     1      20.573 -17.485  -0.998 -2.06 -0.00    +0.000 OA
DOCKED: ATOM      7  C   UNL     1      21.350 -18.471  -0.894 -0.80 -0.00    +0.000 C 
DOCKED: ATOM      8  N   UNL     1      21.008 -19.717  -1.508 -0.74 -0.00    +0.000 N 
DOCKED: ATOM      9  H   UNL     1      21.621 -20.483  -1.430 -0.27 -0.00    +0.000 HD
DOCKED: BRANCH   8  10
DOCKED: ATOM     10  O   UNL     1      19.850 -19.851  -2.196 -1.83 -0.00    +0.000 OA
DOCKED: ATOM     11  H   UNL     1      19.228 -19.160  -1.921 -0.47 -0.00    +0.000 HD
DOCKED: ENDBRANCH   8  10
DOCKED: ENDBRANCH   5   7
DOCKED: ENDBRANCH   4   5
DOCKED: ENDBRANCH   3   4
DOCKED: ENDBRANCH   2   3
DOCKED: ENDBRANCH   1   2
DOCKED: BRANCH   1  12
DOCKED: ATOM     12  C   UNL     1      27.163 -15.130  -3.215 -0.36 -0.00    +0.000 C 
DOCKED: BRANCH  12  13
DOCKED: ATOM     13  C   UNL     1      27.724 -15.502  -4.558 -0.38 -0.00    +0.000 C 
DOCKED: ATOM     14  N   UNL     1      29.086 -15.945  -4.670 -0.29 -0.00    +0.000 N 
DOCKED: ATOM     15  O   UNL     1      26.993 -15.412  -5.580 -1.15 +0.00    +0.000 OA
DOCKED: ATOM     16  H   UNL     1      29.525 -16.298  -3.863 -0.01 -0.00    +0.000 HD
DOCKED: BRANCH  14  17
DOCKED: ATOM     17  C   UNL     1      29.848 -15.905  -5.889 -0.30 -0.00    +0.000 A 
DOCKED: ATOM     18  C   UNL     1      30.423 -17.084  -6.384 -0.31 -0.00    +0.000 A 
DOCKED: ATOM     19  C   UNL     1      31.192 -17.053  -7.549 -0.28 -0.00    +0.000 A 
DOCKED: ATOM     20  C   UNL     1      31.394 -15.838  -8.203 -0.18 -0.00    +0.000 A 
DOCKED: ATOM     21  N   UNL     1      30.852 -14.697  -7.701 -0.23 -0.00    +0.000 NA
DOCKED: ATOM     22  C   UNL     1      30.096 -14.700  -6.571 -0.25 -0.00    +0.000 A 
DOCKED: ENDBRANCH  14  17
DOCKED: ENDBRANCH  12  13
DOCKED: ENDBRANCH   1  12
DOCKED: TORSDOF 9
DOCKED: TER
DOCKED: ENDMDL
________________________________________________________________________________


	BEGINNING GENETIC ALGORITHM DOCKING 64 of 100
Run: 64 Seed: 1427600136 1764458087 [ Run 64 of 100 GA/GALS ]
Beginning LAMARCKIAN GENETIC ALGORITHM (LGA), with a maximum of 2500000 energy evaluations.

Final-Value: -13.854


	FINAL GENETIC ALGORITHM DOCKED STATE
	_______________________________________________


Detailed state:  trans 26.251 -18.889 -1.629 quatxyzw -0.654733 -0.457399 -0.469968 0.375821 center -0.121 -0.193 0.463 ntor 9 4.5342 -113.4415 129.7527 151.0023 -143.7709 172.8592 -24.7945 -150.0597 -174.2447
State:	 26.251 -18.889  -1.629  -0.707 -0.494 -0.507 135.850      4.53 -113.44  129.75  151.00 -143.77  172.86  -24.79 -150.06 -174.24

DOCKED: MODEL       64
DOCKED: USER    Run = 64
DOCKED: USER    DPF = ligand_dock.biased.dpf
DOCKED: USER  
DOCKED: USER    Estimated Free Energy of Binding    =   -9.97 kcal/mol  [=(1)+(2)+(3)-(4)]
DOCKED: USER    Estimated Inhibition Constant, Ki   =   49.08 nM (nanomolar)  [Temperature = 298.15 K]
DOCKED: USER    
DOCKED: USER    (1) Final Intermolecular Energy     =  -12.66 kcal/mol
DOCKED: USER        vdW + Hbond + desolv Energy     =  -12.66 kcal/mol
DOCKED: USER        Electrostatic Energy            =   +0.00 kcal/mol
DOCKED: USER    (2) Final Total Internal Energy     =   -1.20 kcal/mol
DOCKED: USER    (3) Torsional Free Energy           =   +2.68 kcal/mol
DOCKED: USER    (4) Unbound System's Energy  [=(2)] =   -1.20 kcal/mol
DOCKED: USER    
DOCKED: USER    
DOCKED: USER    NEWDPF move ligand.pdbqt
DOCKED: USER    NEWDPF about -0.121000 -0.193000 0.463000
DOCKED: USER    NEWDPF tran0 26.250860 -18.888826 -1.629283
DOCKED: USER    NEWDPF quaternion0 -0.654733 -0.457399 -0.469968 0.375821
DOCKED: USER    NEWDPF axisangle0 -0.706527 -0.493582 -0.507145 135.849904
DOCKED: USER    NEWDPF quat0 -0.706527 -0.493582 -0.507145 135.849904
DOCKED: USER    NEWDPF dihe0 4.53 -113.44 129.75 151.00 -143.77 172.86 -24.79 -150.06 -174.24 
DOCKED: USER  keepresnum = 1 
DOCKED: USER  
DOCKED: REMARK  Name = 
DOCKED: REMARK  9 active torsions:
DOCKED: REMARK  status: ('A' for Active; 'I' for Inactive)
DOCKED: REMARK    1  A    between atoms: C_2  and  C_5
DOCKED: REMARK    2  A    between atoms: N_3  and  O_4
DOCKED: REMARK    3  A    between atoms: C_5  and  C_6
DOCKED: REMARK    4  A    between atoms: C_6  and  C_7
DOCKED: REMARK    5  A    between atoms: C_7  and  C_8
DOCKED: REMARK    6  A    between atoms: C_8  and  C_9
DOCKED: REMARK    7  A    between atoms: C_9  and  C_10
DOCKED: REMARK    8  A    between atoms: C_10  and  C_11
DOCKED: REMARK    9  A    between atoms: N_12  and  C_13
DOCKED: REMARK                            x       y       z     vdW  Elec       q    Type
DOCKED: REMARK                         _______ _______ _______ _____ _____    ______ ____
DOCKED: USER                              x       y       z     vdW  Elec       q    Type
DOCKED: USER                           _______ _______ _______ _____ _____    ______ ____
DOCKED: ROOT
DOCKED: ATOM      1  C   UNL     1      23.220 -17.908  -1.216 -0.75 -0.00    +0.000 C 
DOCKED: ENDROOT
DOCKED: BRANCH   1   2
DOCKED: ATOM      2  C   UNL     1      24.395 -17.870  -0.226 -0.70 -0.00    +0.000 C 
DOCKED: BRANCH   2   3
DOCKED: ATOM      3  C   UNL     1      25.238 -16.601  -0.421 -0.33 -0.00    +0.000 C 
DOCKED: BRANCH   3   4
DOCKED: ATOM      4  C   UNL     1      24.910 -15.864  -1.732 -0.37 -0.00    +0.000 C 
DOCKED: BRANCH   4   5
DOCKED: ATOM      5  C   UNL     1      25.526 -16.500  -2.989 -0.40 -0.00    +0.000 C 
DOCKED: BRANCH   5   7
DOCKED: ATOM      6  O   UNL     1      25.119 -14.481  -4.201 -1.02 -0.00    +0.000 OA
DOCKED: ATOM      7  C   UNL     1      25.875 -15.474  -4.028 -0.60 -0.00    +0.000 C 
DOCKED: ATOM      8  N   UNL     1      27.045 -15.630  -4.837 -0.46 -0.00    +0.000 N 
DOCKED: ATOM      9  H   UNL     1      27.636 -16.403  -4.694 -0.01 +0.00    +0.000 HD
DOCKED: BRANCH   8  10
DOCKED: ATOM     10  O   UNL     1      27.345 -14.722  -5.795 -0.73 -0.00    +0.000 OA
DOCKED: ATOM     11  H   UNL     1      26.710 -13.991  -5.759 -0.02 -0.00    +0.000 HD
DOCKED: ENDBRANCH   8  10
DOCKED: ENDBRANCH   5   7
DOCKED: ENDBRANCH   4   5
DOCKED: ENDBRANCH   3   4
DOCKED: ENDBRANCH   2   3
DOCKED: ENDBRANCH   1   2
DOCKED: BRANCH   1  12
DOCKED: ATOM     12  C   UNL     1      22.755 -19.342  -1.508 -0.61 -0.00    +0.000 C 
DOCKED: BRANCH  12  13
DOCKED: ATOM     13  C   UNL     1      21.352 -19.572  -1.025 -0.68 -0.00    +0.000 C 
DOCKED: ATOM     14  N   UNL     1      21.018 -19.336   0.352 -0.70 -0.00    +0.000 N 
DOCKED: ATOM     15  O   UNL     1      20.478 -19.980  -1.837 -1.67 -0.00    +0.000 OA
DOCKED: ATOM     16  H   UNL     1      21.603 -18.742   0.874 -0.16 -0.00    +0.000 HD
DOCKED: BRANCH  14  17
DOCKED: ATOM     17  C   UNL     1      19.880 -19.915   1.015 -0.66 -0.00    +0.000 A 
DOCKED: ATOM     18  C   UNL     1      18.775 -20.329   0.258 -0.66 -0.00    +0.000 A 
DOCKED: ATOM     19  C   UNL     1      17.652 -20.862   0.892 -0.50 -0.00    +0.000 A 
DOCKED: ATOM     20  C   UNL     1      17.636 -20.964   2.283 -0.63 -0.00    +0.000 A 
DOCKED: ATOM     21  N   UNL     1      18.703 -20.537   3.009 -0.52 -0.00    +0.000 NA
DOCKED: ATOM     22  C   UNL     1      19.810 -20.018   2.416 -0.46 -0.00    +0.000 A 
DOCKED: ENDBRANCH  14  17
DOCKED: ENDBRANCH  12  13
DOCKED: ENDBRANCH   1  12
DOCKED: TORSDOF 9
DOCKED: TER
DOCKED: ENDMDL
________________________________________________________________________________


	BEGINNING GENETIC ALGORITHM DOCKING 65 of 100
Run: 65 Seed: 599660803 1920670544 [ Run 65 of 100 GA/GALS ]
Beginning LAMARCKIAN GENETIC ALGORITHM (LGA), with a maximum of 2500000 energy evaluations.

Final-Value: -13.393


	FINAL GENETIC ALGORITHM DOCKED STATE
	_______________________________________________


Detailed state:  trans 24.480 -18.655 -2.642 quatxyzw 0.152394 -0.731645 0.501060 -0.436360 center -0.121 -0.193 0.463 ntor 9 -9.2089 -30.0540 14.7247 -175.4732 89.3569 -84.1593 -88.8925 -0.9534 115.6682
State:	 24.480 -18.655  -2.642   0.169 -0.813  0.557 -128.256     -9.21  -30.05   14.72 -175.47   89.36  -84.16  -88.89   -0.95  115.67

DOCKED: MODEL       65
DOCKED: USER    Run = 65
DOCKED: USER    DPF = ligand_dock.biased.dpf
DOCKED: USER  
DOCKED: USER    Estimated Free Energy of Binding    =   -9.33 kcal/mol  [=(1)+(2)+(3)-(4)]
DOCKED: USER    Estimated Inhibition Constant, Ki   =  145.52 nM (nanomolar)  [Temperature = 298.15 K]
DOCKED: USER    
DOCKED: USER    (1) Final Intermolecular Energy     =  -12.01 kcal/mol
DOCKED: USER        vdW + Hbond + desolv Energy     =  -12.01 kcal/mol
DOCKED: USER        Electrostatic Energy            =   +0.00 kcal/mol
DOCKED: USER    (2) Final Total Internal Energy     =   -1.38 kcal/mol
DOCKED: USER    (3) Torsional Free Energy           =   +2.68 kcal/mol
DOCKED: USER    (4) Unbound System's Energy  [=(2)] =   -1.38 kcal/mol
DOCKED: USER    
DOCKED: USER    
DOCKED: USER    NEWDPF move ligand.pdbqt
DOCKED: USER    NEWDPF about -0.121000 -0.193000 0.463000
DOCKED: USER    NEWDPF tran0 24.480249 -18.654644 -2.642299
DOCKED: USER    NEWDPF quaternion0 0.152394 -0.731645 0.501060 -0.436360
DOCKED: USER    NEWDPF axisangle0 0.169370 -0.813145 0.556875 -128.256245
DOCKED: USER    NEWDPF quat0 0.169370 -0.813145 0.556875 -128.256245
DOCKED: USER    NEWDPF dihe0 -9.21 -30.05 14.72 -175.47 89.36 -84.16 -88.89 -0.95 115.67 
DOCKED: USER  keepresnum = 1 
DOCKED: USER  
DOCKED: REMARK  Name = 
DOCKED: REMARK  9 active torsions:
DOCKED: REMARK  status: ('A' for Active; 'I' for Inactive)
DOCKED: REMARK    1  A    between atoms: C_2  and  C_5
DOCKED: REMARK    2  A    between atoms: N_3  and  O_4
DOCKED: REMARK    3  A    between atoms: C_5  and  C_6
DOCKED: REMARK    4  A    between atoms: C_6  and  C_7
DOCKED: REMARK    5  A    between atoms: C_7  and  C_8
DOCKED: REMARK    6  A    between atoms: C_8  and  C_9
DOCKED: REMARK    7  A    between atoms: C_9  and  C_10
DOCKED: REMARK    8  A    between atoms: C_10  and  C_11
DOCKED: REMARK    9  A    between atoms: N_12  and  C_13
DOCKED: REMARK                            x       y       z     vdW  Elec       q    Type
DOCKED: REMARK                         _______ _______ _______ _____ _____    ______ ____
DOCKED: USER                              x       y       z     vdW  Elec       q    Type
DOCKED: USER                           _______ _______ _______ _____ _____    ______ ____
DOCKED: ROOT
DOCKED: ATOM      1  C   UNL     1      26.055 -16.148  -1.395 -0.50 -0.00    +0.000 C 
DOCKED: ENDROOT
DOCKED: BRANCH   1   2
DOCKED: ATOM      2  C   UNL     1      24.587 -16.248  -1.837 -0.45 -0.00    +0.000 C 
DOCKED: BRANCH   2   3
DOCKED: ATOM      3  C   UNL     1      24.119 -17.709  -1.869 -0.59 -0.00    +0.000 C 
DOCKED: BRANCH   3   4
DOCKED: ATOM      4  C   UNL     1      23.527 -18.174  -0.526 -0.81 -0.00    +0.000 C 
DOCKED: BRANCH   4   5
DOCKED: ATOM      5  C   UNL     1      22.537 -19.346  -0.639 -0.74 -0.00    +0.000 C 
DOCKED: BRANCH   5   7
DOCKED: ATOM      6  O   UNL     1      20.657 -17.873  -0.709 -2.33 -0.00    +0.000 OA
DOCKED: ATOM      7  C   UNL     1      21.142 -18.945  -0.258 -0.82 -0.00    +0.000 C 
DOCKED: ATOM      8  N   UNL     1      20.371 -19.758   0.631 -0.70 -0.00    +0.000 N 
DOCKED: ATOM      9  H   UNL     1      20.751 -20.598   0.976 -0.46 -0.00    +0.000 HD
DOCKED: BRANCH   8  10
DOCKED: ATOM     10  O   UNL     1      19.124 -19.383   1.002 -0.75 -0.00    +0.000 OA
DOCKED: ATOM     11  H   UNL     1      18.955 -18.477   0.699 -0.36 -0.00    +0.000 HD
DOCKED: ENDBRANCH   8  10
DOCKED: ENDBRANCH   5   7
DOCKED: ENDBRANCH   4   5
DOCKED: ENDBRANCH   3   4
DOCKED: ENDBRANCH   2   3
DOCKED: ENDBRANCH   1   2
DOCKED: BRANCH   1  12
DOCKED: ATOM     12  C   UNL     1      27.024 -16.212  -2.584 -0.35 -0.00    +0.000 C 
DOCKED: BRANCH  12  13
DOCKED: ATOM     13  C   UNL     1      26.570 -15.327  -3.708 -0.49 -0.00    +0.000 C 
DOCKED: ATOM     14  N   UNL     1      27.053 -13.977  -3.801 -0.27 -0.00    +0.000 N 
DOCKED: ATOM     15  O   UNL     1      25.758 -15.777  -4.561 -0.80 -0.00    +0.000 OA
DOCKED: ATOM     16  H   UNL     1      27.890 -13.754  -3.336 +0.01 -0.00    +0.000 HD
DOCKED: BRANCH  14  17
DOCKED: ATOM     17  C   UNL     1      26.388 -12.932  -4.533 -0.29 -0.00    +0.000 A 
DOCKED: ATOM     18  C   UNL     1      27.145 -12.032  -5.296 -0.19 -0.00    +0.000 A 
DOCKED: ATOM     19  C   UNL     1      26.515 -10.994  -5.984 -0.19 -0.00    +0.000 A 
DOCKED: ATOM     20  C   UNL     1      25.130 -10.855  -5.892 -0.30 -0.00    +0.000 A 
DOCKED: ATOM     21  N   UNL     1      24.408 -11.718  -5.130 -0.40 -0.00    +0.000 NA
DOCKED: ATOM     22  C   UNL     1      24.997 -12.739  -4.453 -0.22 -0.00    +0.000 A 
DOCKED: ENDBRANCH  14  17
DOCKED: ENDBRANCH  12  13
DOCKED: ENDBRANCH   1  12
DOCKED: TORSDOF 9
DOCKED: TER
DOCKED: ENDMDL
________________________________________________________________________________


	BEGINNING GENETIC ALGORITHM DOCKING 66 of 100
Run: 66 Seed: 1582088277 562676516 [ Run 66 of 100 GA/GALS ]
Beginning LAMARCKIAN GENETIC ALGORITHM (LGA), with a maximum of 2500000 energy evaluations.

Final-Value: -13.657


	FINAL GENETIC ALGORITHM DOCKED STATE
	_______________________________________________


Detailed state:  trans 29.222 -17.413 -2.379 quatxyzw 0.685359 0.604092 -0.033531 -0.405256 center -0.121 -0.193 0.463 ntor 9 -6.8592 -179.9406 157.8430 163.8024 47.9369 -179.9748 -72.5692 180.0000 -56.6832
State:	 29.222 -17.413  -2.379   0.750  0.661 -0.037 -132.186     -6.86 -179.94  157.84  163.80   47.94 -179.97  -72.57  180.00  -56.68

DOCKED: MODEL       66
DOCKED: USER    Run = 66
DOCKED: USER    DPF = ligand_dock.biased.dpf
DOCKED: USER  
DOCKED: USER    Estimated Free Energy of Binding    =   -9.14 kcal/mol  [=(1)+(2)+(3)-(4)]
DOCKED: USER    Estimated Inhibition Constant, Ki   =  200.58 nM (nanomolar)  [Temperature = 298.15 K]
DOCKED: USER    
DOCKED: USER    (1) Final Intermolecular Energy     =  -11.82 kcal/mol
DOCKED: USER        vdW + Hbond + desolv Energy     =  -11.82 kcal/mol
DOCKED: USER        Electrostatic Energy            =   +0.00 kcal/mol
DOCKED: USER    (2) Final Total Internal Energy     =   -1.84 kcal/mol
DOCKED: USER    (3) Torsional Free Energy           =   +2.68 kcal/mol
DOCKED: USER    (4) Unbound System's Energy  [=(2)] =   -1.84 kcal/mol
DOCKED: USER    
DOCKED: USER    
DOCKED: USER    NEWDPF move ligand.pdbqt
DOCKED: USER    NEWDPF about -0.121000 -0.193000 0.463000
DOCKED: USER    NEWDPF tran0 29.222334 -17.413440 -2.379329
DOCKED: USER    NEWDPF quaternion0 0.685359 0.604092 -0.033531 -0.405256
DOCKED: USER    NEWDPF axisangle0 0.749679 0.660785 -0.036677 -132.185685
DOCKED: USER    NEWDPF quat0 0.749679 0.660785 -0.036677 -132.185685
DOCKED: USER    NEWDPF dihe0 -6.86 -179.94 157.84 163.80 47.94 -179.97 -72.57 180.00 -56.68 
DOCKED: USER  keepresnum = 1 
DOCKED: USER  
DOCKED: REMARK  Name = 
DOCKED: REMARK  9 active torsions:
DOCKED: REMARK  status: ('A' for Active; 'I' for Inactive)
DOCKED: REMARK    1  A    between atoms: C_2  and  C_5
DOCKED: REMARK    2  A    between atoms: N_3  and  O_4
DOCKED: REMARK    3  A    between atoms: C_5  and  C_6
DOCKED: REMARK    4  A    between atoms: C_6  and  C_7
DOCKED: REMARK    5  A    between atoms: C_7  and  C_8
DOCKED: REMARK    6  A    between atoms: C_8  and  C_9
DOCKED: REMARK    7  A    between atoms: C_9  and  C_10
DOCKED: REMARK    8  A    between atoms: C_10  and  C_11
DOCKED: REMARK    9  A    between atoms: N_12  and  C_13
DOCKED: REMARK                            x       y       z     vdW  Elec       q    Type
DOCKED: REMARK                         _______ _______ _______ _____ _____    ______ ____
DOCKED: USER                              x       y       z     vdW  Elec       q    Type
DOCKED: USER                           _______ _______ _______ _____ _____    ______ ____
DOCKED: ROOT
DOCKED: ATOM      1  C   UNL     1      27.460 -15.117  -0.988 -0.28 -0.00    +0.000 C 
DOCKED: ENDROOT
DOCKED: BRANCH   1   2
DOCKED: ATOM      2  C   UNL     1      28.981 -15.178  -1.197 -0.16 -0.00    +0.000 C 
DOCKED: BRANCH   2   3
DOCKED: ATOM      3  C   UNL     1      29.326 -15.806  -2.554 -0.19 -0.00    +0.000 C 
DOCKED: BRANCH   3   4
DOCKED: ATOM      4  C   UNL     1      28.088 -16.345  -3.293 -0.13 -0.00    +0.000 C 
DOCKED: BRANCH   4   5
DOCKED: ATOM      5  C   UNL     1      27.748 -15.599  -4.594 -0.37 -0.00    +0.000 C 
DOCKED: BRANCH   5   7
DOCKED: ATOM      6  O   UNL     1      25.559 -15.979  -5.474 -1.03 +0.00    +0.000 OA
DOCKED: ATOM      7  C   UNL     1      26.283 -15.293  -4.704 -0.56 -0.00    +0.000 C 
DOCKED: ATOM      8  N   UNL     1      25.710 -14.213  -3.960 -0.49 -0.00    +0.000 N 
DOCKED: ATOM      9  H   UNL     1      26.277 -13.684  -3.355 -0.01 -0.00    +0.000 HD
DOCKED: BRANCH   8  10
DOCKED: ATOM     10  O   UNL     1      24.395 -13.915  -4.081 -1.15 -0.00    +0.000 OA
DOCKED: ATOM     11  H   UNL     1      24.005 -14.452  -4.788 -0.50 -0.00    +0.000 HD
DOCKED: ENDBRANCH   8  10
DOCKED: ENDBRANCH   5   7
DOCKED: ENDBRANCH   4   5
DOCKED: ENDBRANCH   3   4
DOCKED: ENDBRANCH   2   3
DOCKED: ENDBRANCH   1   2
DOCKED: BRANCH   1  12
DOCKED: ATOM     12  C   UNL     1      26.971 -16.158   0.028 -0.37 -0.00    +0.000 C 
DOCKED: BRANCH  12  13
DOCKED: ATOM     13  C   UNL     1      25.867 -17.002  -0.540 -0.56 -0.00    +0.000 C 
DOCKED: ATOM     14  N   UNL     1      24.504 -16.555  -0.457 -0.42 -0.00    +0.000 N 
DOCKED: ATOM     15  O   UNL     1      26.148 -18.106  -1.081 -0.62 -0.00    +0.000 OA
DOCKED: ATOM     16  H   UNL     1      24.341 -15.594  -0.326 -0.02 -0.00    +0.000 HD
DOCKED: BRANCH  14  17
DOCKED: ATOM     17  C   UNL     1      23.364 -17.425  -0.554 -0.64 -0.00    +0.000 A 
DOCKED: ATOM     18  C   UNL     1      23.557 -18.810  -0.653 -0.70 -0.00    +0.000 A 
DOCKED: ATOM     19  C   UNL     1      22.459 -19.664  -0.780 -0.31 -0.00    +0.000 A 
DOCKED: ATOM     20  C   UNL     1      21.174 -19.123  -0.822 -0.78 -0.00    +0.000 A 
DOCKED: ATOM     21  N   UNL     1      20.999 -17.777  -0.750 -2.02 -0.00    +0.000 NA
DOCKED: ATOM     22  C   UNL     1      22.051 -16.925  -0.622 -0.48 -0.00    +0.000 A 
DOCKED: ENDBRANCH  14  17
DOCKED: ENDBRANCH  12  13
DOCKED: ENDBRANCH   1  12
DOCKED: TORSDOF 9
DOCKED: TER
DOCKED: ENDMDL
________________________________________________________________________________


	BEGINNING GENETIC ALGORITHM DOCKING 67 of 100
Run: 67 Seed: 223870596 184169363 [ Run 67 of 100 GA/GALS ]
Beginning LAMARCKIAN GENETIC ALGORITHM (LGA), with a maximum of 2500000 energy evaluations.

Final-Value: -14.305


	FINAL GENETIC ALGORITHM DOCKED STATE
	_______________________________________________


Detailed state:  trans 25.560 -18.553 -2.404 quatxyzw 0.760687 -0.326757 0.187047 -0.528771 center -0.121 -0.193 0.463 ntor 9 7.1150 -111.2060 -144.3573 134.1379 165.8570 82.7612 -130.6224 -112.7815 -59.9589
State:	 25.560 -18.553  -2.404   0.896 -0.385  0.220 -116.155      7.11 -111.21 -144.36  134.14  165.86   82.76 -130.62 -112.78  -59.96

DOCKED: MODEL       67
DOCKED: USER    Run = 67
DOCKED: USER    DPF = ligand_dock.biased.dpf
DOCKED: USER  
DOCKED: USER    Estimated Free Energy of Binding    =  -10.25 kcal/mol  [=(1)+(2)+(3)-(4)]
DOCKED: USER    Estimated Inhibition Constant, Ki   =   30.68 nM (nanomolar)  [Temperature = 298.15 K]
DOCKED: USER    
DOCKED: USER    (1) Final Intermolecular Energy     =  -12.93 kcal/mol
DOCKED: USER        vdW + Hbond + desolv Energy     =  -12.93 kcal/mol
DOCKED: USER        Electrostatic Energy            =   +0.00 kcal/mol
DOCKED: USER    (2) Final Total Internal Energy     =   -1.37 kcal/mol
DOCKED: USER    (3) Torsional Free Energy           =   +2.68 kcal/mol
DOCKED: USER    (4) Unbound System's Energy  [=(2)] =   -1.37 kcal/mol
DOCKED: USER    
DOCKED: USER    
DOCKED: USER    NEWDPF move ligand.pdbqt
DOCKED: USER    NEWDPF about -0.121000 -0.193000 0.463000
DOCKED: USER    NEWDPF tran0 25.560246 -18.552807 -2.404241
DOCKED: USER    NEWDPF quaternion0 0.760687 -0.326757 0.187047 -0.528771
DOCKED: USER    NEWDPF axisangle0 0.896229 -0.384979 0.220376 -116.155146
DOCKED: USER    NEWDPF quat0 0.896229 -0.384979 0.220376 -116.155146
DOCKED: USER    NEWDPF dihe0 7.11 -111.21 -144.36 134.14 165.86 82.76 -130.62 -112.78 -59.96 
DOCKED: USER  keepresnum = 1 
DOCKED: USER  
DOCKED: REMARK  Name = 
DOCKED: REMARK  9 active torsions:
DOCKED: REMARK  status: ('A' for Active; 'I' for Inactive)
DOCKED: REMARK    1  A    between atoms: C_2  and  C_5
DOCKED: REMARK    2  A    between atoms: N_3  and  O_4
DOCKED: REMARK    3  A    between atoms: C_5  and  C_6
DOCKED: REMARK    4  A    between atoms: C_6  and  C_7
DOCKED: REMARK    5  A    between atoms: C_7  and  C_8
DOCKED: REMARK    6  A    between atoms: C_8  and  C_9
DOCKED: REMARK    7  A    between atoms: C_9  and  C_10
DOCKED: REMARK    8  A    between atoms: C_10  and  C_11
DOCKED: REMARK    9  A    between atoms: N_12  and  C_13
DOCKED: REMARK                            x       y       z     vdW  Elec       q    Type
DOCKED: REMARK                         _______ _______ _______ _____ _____    ______ ____
DOCKED: USER                              x       y       z     vdW  Elec       q    Type
DOCKED: USER                           _______ _______ _______ _____ _____    ______ ____
DOCKED: ROOT
DOCKED: ATOM      1  C   UNL     1      26.650 -15.734  -1.318 -0.41 -0.00    +0.000 C 
DOCKED: ENDROOT
DOCKED: BRANCH   1   2
DOCKED: ATOM      2  C   UNL     1      26.108 -16.933  -0.525 -0.55 -0.00    +0.000 C 
DOCKED: BRANCH   2   3
DOCKED: ATOM      3  C   UNL     1      25.253 -17.843  -1.419 -0.61 -0.00    +0.000 C 
DOCKED: BRANCH   3   4
DOCKED: ATOM      4  C   UNL     1      23.743 -17.664  -1.178 -0.75 -0.00    +0.000 C 
DOCKED: BRANCH   4   5
DOCKED: ATOM      5  C   UNL     1      22.983 -18.974  -0.911 -0.82 -0.00    +0.000 C 
DOCKED: BRANCH   5   7
DOCKED: ATOM      6  O   UNL     1      20.958 -17.721  -0.707 -2.15 -0.00    +0.000 OA
DOCKED: ATOM      7  C   UNL     1      21.498 -18.805  -1.056 -0.83 -0.00    +0.000 C 
DOCKED: ATOM      8  N   UNL     1      20.693 -19.874  -1.563 -0.72 -0.00    +0.000 N 
DOCKED: ATOM      9  H   UNL     1      21.120 -20.716  -1.840 -0.28 -0.00    +0.000 HD
DOCKED: BRANCH   8  10
DOCKED: ATOM     10  O   UNL     1      19.350 -19.735  -1.665 -1.36 -0.00    +0.000 OA
DOCKED: ATOM     11  H   UNL     1      19.103 -18.820  -1.462 -0.57 -0.00    +0.000 HD
DOCKED: ENDBRANCH   8  10
DOCKED: ENDBRANCH   5   7
DOCKED: ENDBRANCH   4   5
DOCKED: ENDBRANCH   3   4
DOCKED: ENDBRANCH   2   3
DOCKED: ENDBRANCH   1   2
DOCKED: BRANCH   1  12
DOCKED: ATOM     12  C   UNL     1      25.555 -15.036  -2.135 -0.41 -0.00    +0.000 C 
DOCKED: BRANCH  12  13
DOCKED: ATOM     13  C   UNL     1      25.979 -14.838  -3.562 -0.53 -0.00    +0.000 C 
DOCKED: ATOM     14  N   UNL     1      27.371 -14.896  -3.914 -0.31 -0.00    +0.000 N 
DOCKED: ATOM     15  O   UNL     1      25.104 -14.612  -4.442 -1.01 -0.00    +0.000 OA
DOCKED: ATOM     16  H   UNL     1      27.982 -15.366  -3.303 -0.00 -0.00    +0.000 HD
DOCKED: BRANCH  14  17
DOCKED: ATOM     17  C   UNL     1      27.926 -14.308  -5.103 -0.31 -0.00    +0.000 A 
DOCKED: ATOM     18  C   UNL     1      27.846 -12.922  -5.293 -0.20 -0.00    +0.000 A 
DOCKED: ATOM     19  C   UNL     1      28.352 -12.343  -6.458 -0.18 -0.00    +0.000 A 
DOCKED: ATOM     20  C   UNL     1      28.923 -13.159  -7.434 -0.26 -0.00    +0.000 A 
DOCKED: ATOM     21  N   UNL     1      28.973 -14.505  -7.252 -0.33 -0.00    +0.000 NA
DOCKED: ATOM     22  C   UNL     1      28.491 -15.093  -6.125 -0.35 -0.00    +0.000 A 
DOCKED: ENDBRANCH  14  17
DOCKED: ENDBRANCH  12  13
DOCKED: ENDBRANCH   1  12
DOCKED: TORSDOF 9
DOCKED: TER
DOCKED: ENDMDL
________________________________________________________________________________


	BEGINNING GENETIC ALGORITHM DOCKING 68 of 100
Run: 68 Seed: 306867904 1089308212 [ Run 68 of 100 GA/GALS ]
Beginning LAMARCKIAN GENETIC ALGORITHM (LGA), with a maximum of 2500000 energy evaluations.

Final-Value: -14.012


	FINAL GENETIC ALGORITHM DOCKED STATE
	_______________________________________________


Detailed state:  trans 25.364 -18.954 -1.666 quatxyzw 0.427255 -0.371842 0.644192 -0.514007 center -0.121 -0.193 0.463 ntor 9 7.1127 148.4135 -78.2602 37.0246 -63.3384 -2.2986 -107.5185 -132.4631 -123.6071
State:	 25.364 -18.954  -1.666   0.498 -0.433  0.751 -118.138      7.11  148.41  -78.26   37.02  -63.34   -2.30 -107.52 -132.46 -123.61

DOCKED: MODEL       68
DOCKED: USER    Run = 68
DOCKED: USER    DPF = ligand_dock.biased.dpf
DOCKED: USER  
DOCKED: USER    Estimated Free Energy of Binding    =   -9.97 kcal/mol  [=(1)+(2)+(3)-(4)]
DOCKED: USER    Estimated Inhibition Constant, Ki   =   49.01 nM (nanomolar)  [Temperature = 298.15 K]
DOCKED: USER    
DOCKED: USER    (1) Final Intermolecular Energy     =  -12.66 kcal/mol
DOCKED: USER        vdW + Hbond + desolv Energy     =  -12.66 kcal/mol
DOCKED: USER        Electrostatic Energy            =   +0.00 kcal/mol
DOCKED: USER    (2) Final Total Internal Energy     =   -1.36 kcal/mol
DOCKED: USER    (3) Torsional Free Energy           =   +2.68 kcal/mol
DOCKED: USER    (4) Unbound System's Energy  [=(2)] =   -1.36 kcal/mol
DOCKED: USER    
DOCKED: USER    
DOCKED: USER    NEWDPF move ligand.pdbqt
DOCKED: USER    NEWDPF about -0.121000 -0.193000 0.463000
DOCKED: USER    NEWDPF tran0 25.363587 -18.954298 -1.665930
DOCKED: USER    NEWDPF quaternion0 0.427255 -0.371842 0.644192 -0.514007
DOCKED: USER    NEWDPF axisangle0 0.498091 -0.433490 0.750994 -118.137785
DOCKED: USER    NEWDPF quat0 0.498091 -0.433490 0.750994 -118.137785
DOCKED: USER    NEWDPF dihe0 7.11 148.41 -78.26 37.02 -63.34 -2.30 -107.52 -132.46 -123.61 
DOCKED: USER  keepresnum = 1 
DOCKED: USER  
DOCKED: REMARK  Name = 
DOCKED: REMARK  9 active torsions:
DOCKED: REMARK  status: ('A' for Active; 'I' for Inactive)
DOCKED: REMARK    1  A    between atoms: C_2  and  C_5
DOCKED: REMARK    2  A    between atoms: N_3  and  O_4
DOCKED: REMARK    3  A    between atoms: C_5  and  C_6
DOCKED: REMARK    4  A    between atoms: C_6  and  C_7
DOCKED: REMARK    5  A    between atoms: C_7  and  C_8
DOCKED: REMARK    6  A    between atoms: C_8  and  C_9
DOCKED: REMARK    7  A    between atoms: C_9  and  C_10
DOCKED: REMARK    8  A    between atoms: C_10  and  C_11
DOCKED: REMARK    9  A    between atoms: N_12  and  C_13
DOCKED: REMARK                            x       y       z     vdW  Elec       q    Type
DOCKED: REMARK                         _______ _______ _______ _____ _____    ______ ____
DOCKED: USER                              x       y       z     vdW  Elec       q    Type
DOCKED: USER                           _______ _______ _______ _____ _____    ______ ____
DOCKED: ROOT
DOCKED: ATOM      1  C   UNL     1      25.423 -15.782  -2.164 -0.53 -0.00    +0.000 C 
DOCKED: ENDROOT
DOCKED: BRANCH   1   2
DOCKED: ATOM      2  C   UNL     1      24.350 -16.633  -1.468 -0.59 -0.00    +0.000 C 
DOCKED: BRANCH   2   3
DOCKED: ATOM      3  C   UNL     1      24.776 -18.107  -1.397 -0.63 -0.00    +0.000 C 
DOCKED: BRANCH   3   4
DOCKED: ATOM      4  C   UNL     1      23.831 -18.959  -0.532 -0.65 -0.00    +0.000 C 
DOCKED: BRANCH   4   5
DOCKED: ATOM      5  C   UNL     1      22.623 -18.194   0.033 -0.78 -0.00    +0.000 C 
DOCKED: BRANCH   5   7
DOCKED: ATOM      6  O   UNL     1      20.649 -17.429  -1.076 -2.06 -0.00    +0.000 OA
DOCKED: ATOM      7  C   UNL     1      21.383 -18.411  -0.785 -0.82 -0.00    +0.000 C 
DOCKED: ATOM      8  N   UNL     1      21.019 -19.726  -1.215 -0.76 -0.00    +0.000 N 
DOCKED: ATOM      9  H   UNL     1      21.599 -20.489  -0.992 -0.15 -0.00    +0.000 HD
DOCKED: BRANCH   8  10
DOCKED: ATOM     10  O   UNL     1      19.885 -19.929  -1.927 -1.82 -0.00    +0.000 OA
DOCKED: ATOM     11  H   UNL     1      19.491 -19.074  -2.158 -0.29 -0.00    +0.000 HD
DOCKED: ENDBRANCH   8  10
DOCKED: ENDBRANCH   5   7
DOCKED: ENDBRANCH   4   5
DOCKED: ENDBRANCH   3   4
DOCKED: ENDBRANCH   2   3
DOCKED: ENDBRANCH   1   2
DOCKED: BRANCH   1  12
DOCKED: ATOM     12  C   UNL     1      25.493 -16.057  -3.672 -0.36 -0.00    +0.000 C 
DOCKED: BRANCH  12  13
DOCKED: ATOM     13  C   UNL     1      26.293 -15.004  -4.385 -0.56 -0.00    +0.000 C 
DOCKED: ATOM     14  N   UNL     1      26.185 -13.628  -3.988 -0.37 -0.00    +0.000 N 
DOCKED: ATOM     15  O   UNL     1      27.049 -15.340  -5.335 -1.06 +0.00    +0.000 OA
DOCKED: ATOM     16  H   UNL     1      25.853 -13.433  -3.082 -0.02 -0.00    +0.000 HD
DOCKED: BRANCH  14  17
DOCKED: ATOM     17  C   UNL     1      26.534 -12.517  -4.831 -0.25 -0.00    +0.000 A 
DOCKED: ATOM     18  C   UNL     1      25.611 -11.478  -5.025 -0.31 -0.00    +0.000 A 
DOCKED: ATOM     19  C   UNL     1      25.924 -10.410  -5.867 -0.22 -0.00    +0.000 A 
DOCKED: ATOM     20  C   UNL     1      27.155 -10.395  -6.524 -0.12 -0.00    +0.000 A 
DOCKED: ATOM     21  N   UNL     1      28.032 -11.419  -6.349 -0.13 -0.00    +0.000 NA
DOCKED: ATOM     22  C   UNL     1      27.753 -12.469  -5.531 -0.18 -0.00    +0.000 A 
DOCKED: ENDBRANCH  14  17
DOCKED: ENDBRANCH  12  13
DOCKED: ENDBRANCH   1  12
DOCKED: TORSDOF 9
DOCKED: TER
DOCKED: ENDMDL
________________________________________________________________________________


	BEGINNING GENETIC ALGORITHM DOCKING 69 of 100
Run: 69 Seed: 911337219 1339905979 [ Run 69 of 100 GA/GALS ]
Beginning LAMARCKIAN GENETIC ALGORITHM (LGA), with a maximum of 2500000 energy evaluations.

Final-Value: -15.180


	FINAL GENETIC ALGORITHM DOCKED STATE
	_______________________________________________


Detailed state:  trans 25.180 -13.463 0.418 quatxyzw 0.446741 -0.357981 -0.781467 0.248157 center -0.121 -0.193 0.463 ntor 9 -2.1739 -122.1678 48.1144 152.5445 122.2723 3.1236 102.0429 91.2057 -1.2163
State:	 25.180 -13.463   0.418   0.461 -0.370 -0.807 151.263     -2.17 -122.17   48.11  152.54  122.27    3.12  102.04   91.21   -1.22

DOCKED: MODEL       69
DOCKED: USER    Run = 69
DOCKED: USER    DPF = ligand_dock.biased.dpf
DOCKED: USER  
DOCKED: USER    Estimated Free Energy of Binding    =  -11.25 kcal/mol  [=(1)+(2)+(3)-(4)]
DOCKED: USER    Estimated Inhibition Constant, Ki   =    5.65 nM (nanomolar)  [Temperature = 298.15 K]
DOCKED: USER    
DOCKED: USER    (1) Final Intermolecular Energy     =  -13.94 kcal/mol
DOCKED: USER        vdW + Hbond + desolv Energy     =  -13.94 kcal/mol
DOCKED: USER        Electrostatic Energy            =   +0.00 kcal/mol
DOCKED: USER    (2) Final Total Internal Energy     =   -1.24 kcal/mol
DOCKED: USER    (3) Torsional Free Energy           =   +2.68 kcal/mol
DOCKED: USER    (4) Unbound System's Energy  [=(2)] =   -1.24 kcal/mol
DOCKED: USER    
DOCKED: USER    
DOCKED: USER    NEWDPF move ligand.pdbqt
DOCKED: USER    NEWDPF about -0.121000 -0.193000 0.463000
DOCKED: USER    NEWDPF tran0 25.180015 -13.462725 0.418074
DOCKED: USER    NEWDPF quaternion0 0.446741 -0.357981 -0.781467 0.248157
DOCKED: USER    NEWDPF axisangle0 0.461166 -0.369540 -0.806701 151.263057
DOCKED: USER    NEWDPF quat0 0.461166 -0.369540 -0.806701 151.263057
DOCKED: USER    NEWDPF dihe0 -2.17 -122.17 48.11 152.54 122.27 3.12 102.04 91.21 -1.22 
DOCKED: USER  keepresnum = 1 
DOCKED: USER  
DOCKED: REMARK  Name = 
DOCKED: REMARK  9 active torsions:
DOCKED: REMARK  status: ('A' for Active; 'I' for Inactive)
DOCKED: REMARK    1  A    between atoms: C_2  and  C_5
DOCKED: REMARK    2  A    between atoms: N_3  and  O_4
DOCKED: REMARK    3  A    between atoms: C_5  and  C_6
DOCKED: REMARK    4  A    between atoms: C_6  and  C_7
DOCKED: REMARK    5  A    between atoms: C_7  and  C_8
DOCKED: REMARK    6  A    between atoms: C_8  and  C_9
DOCKED: REMARK    7  A    between atoms: C_9  and  C_10
DOCKED: REMARK    8  A    between atoms: C_10  and  C_11
DOCKED: REMARK    9  A    between atoms: N_12  and  C_13
DOCKED: REMARK                            x       y       z     vdW  Elec       q    Type
DOCKED: REMARK                         _______ _______ _______ _____ _____    ______ ____
DOCKED: USER                              x       y       z     vdW  Elec       q    Type
DOCKED: USER                           _______ _______ _______ _____ _____    ______ ____
DOCKED: ROOT
DOCKED: ATOM      1  C   UNL     1      26.952 -15.420  -1.411 -0.35 -0.00    +0.000 C 
DOCKED: ENDROOT
DOCKED: BRANCH   1   2
DOCKED: ATOM      2  C   UNL     1      25.443 -15.462  -1.127 -0.39 -0.00    +0.000 C 
DOCKED: BRANCH   2   3
DOCKED: ATOM      3  C   UNL     1      24.922 -16.907  -1.124 -0.65 -0.00    +0.000 C 
DOCKED: BRANCH   3   4
DOCKED: ATOM      4  C   UNL     1      23.427 -17.000  -0.774 -0.64 -0.00    +0.000 C 
DOCKED: BRANCH   4   5
DOCKED: ATOM      5  C   UNL     1      22.911 -18.434  -0.564 -0.83 -0.00    +0.000 C 
DOCKED: BRANCH   5   7
DOCKED: ATOM      6  O   UNL     1      20.630 -17.737  -0.706 -2.26 -0.00    +0.000 OA
DOCKED: ATOM      7  C   UNL     1      21.493 -18.598  -1.027 -0.81 -0.00    +0.000 C 
DOCKED: ATOM      8  N   UNL     1      21.112 -19.734  -1.807 -0.62 -0.00    +0.000 N 
DOCKED: ATOM      9  H   UNL     1      21.790 -20.401  -2.061 -0.49 -0.00    +0.000 HD
DOCKED: BRANCH   8  10
DOCKED: ATOM     10  O   UNL     1      19.826 -19.901  -2.200 -1.79 -0.00    +0.000 OA
DOCKED: ATOM     11  H   UNL     1      19.283 -19.181  -1.842 -0.45 -0.00    +0.000 HD
DOCKED: ENDBRANCH   8  10
DOCKED: ENDBRANCH   5   7
DOCKED: ENDBRANCH   4   5
DOCKED: ENDBRANCH   3   4
DOCKED: ENDBRANCH   2   3
DOCKED: ENDBRANCH   1   2
DOCKED: BRANCH   1  12
DOCKED: ATOM     12  C   UNL     1      27.785 -15.767  -0.169 -0.32 -0.00    +0.000 C 
DOCKED: BRANCH  12  13
DOCKED: ATOM     13  C   UNL     1      27.735 -14.664   0.849 -0.29 -0.00    +0.000 C 
DOCKED: ATOM     14  N   UNL     1      28.536 -14.746   2.039 -0.11 -0.00    +0.000 N 
DOCKED: ATOM     15  O   UNL     1      26.978 -13.675   0.652 -0.32 -0.00    +0.000 OA
DOCKED: ATOM     16  H   UNL     1      29.321 -15.338   2.026 -1.68 -0.00    +0.000 HD
DOCKED: BRANCH  14  17
DOCKED: ATOM     17  C   UNL     1      28.262 -14.014   3.246 -0.35 -0.00    +0.000 A 
DOCKED: ATOM     18  C   UNL     1      29.057 -12.910   3.582 -0.19 -0.00    +0.000 A 
DOCKED: ATOM     19  C   UNL     1      28.822 -12.211   4.768 -0.25 -0.00    +0.000 A 
DOCKED: ATOM     20  C   UNL     1      27.800 -12.633   5.619 -0.40 +0.00    +0.000 A 
DOCKED: ATOM     21  N   UNL     1      27.051 -13.720   5.296 -0.36 -0.00    +0.000 NA
DOCKED: ATOM     22  C   UNL     1      27.257 -14.416   4.145 -0.41 -0.00    +0.000 A 
DOCKED: ENDBRANCH  14  17
DOCKED: ENDBRANCH  12  13
DOCKED: ENDBRANCH   1  12
DOCKED: TORSDOF 9
DOCKED: TER
DOCKED: ENDMDL
________________________________________________________________________________


	BEGINNING GENETIC ALGORITHM DOCKING 70 of 100
Run: 70 Seed: 301224561 1455346149 [ Run 70 of 100 GA/GALS ]
Beginning LAMARCKIAN GENETIC ALGORITHM (LGA), with a maximum of 2500000 energy evaluations.

Final-Value: -14.085


	FINAL GENETIC ALGORITHM DOCKED STATE
	_______________________________________________


Detailed state:  trans 24.404 -17.285 -1.978 quatxyzw -0.803998 0.409630 0.231304 0.363714 center -0.121 -0.193 0.463 ntor 9 4.3738 -85.8885 72.5156 143.4260 169.8307 60.2376 -98.5062 -141.2933 -169.4788
State:	 24.404 -17.285  -1.978  -0.863  0.440  0.248 137.343      4.37  -85.89   72.52  143.43  169.83   60.24  -98.51 -141.29 -169.48

DOCKED: MODEL       70
DOCKED: USER    Run = 70
DOCKED: USER    DPF = ligand_dock.biased.dpf
DOCKED: USER  
DOCKED: USER    Estimated Free Energy of Binding    =  -10.13 kcal/mol  [=(1)+(2)+(3)-(4)]
DOCKED: USER    Estimated Inhibition Constant, Ki   =   37.30 nM (nanomolar)  [Temperature = 298.15 K]
DOCKED: USER    
DOCKED: USER    (1) Final Intermolecular Energy     =  -12.82 kcal/mol
DOCKED: USER        vdW + Hbond + desolv Energy     =  -12.82 kcal/mol
DOCKED: USER        Electrostatic Energy            =   +0.00 kcal/mol
DOCKED: USER    (2) Final Total Internal Energy     =   -1.27 kcal/mol
DOCKED: USER    (3) Torsional Free Energy           =   +2.68 kcal/mol
DOCKED: USER    (4) Unbound System's Energy  [=(2)] =   -1.27 kcal/mol
DOCKED: USER    
DOCKED: USER    
DOCKED: USER    NEWDPF move ligand.pdbqt
DOCKED: USER    NEWDPF about -0.121000 -0.193000 0.463000
DOCKED: USER    NEWDPF tran0 24.403945 -17.284758 -1.978257
DOCKED: USER    NEWDPF quaternion0 -0.803998 0.409630 0.231304 0.363714
DOCKED: USER    NEWDPF axisangle0 -0.863112 0.439748 0.248311 137.343105
DOCKED: USER    NEWDPF quat0 -0.863112 0.439748 0.248311 137.343105
DOCKED: USER    NEWDPF dihe0 4.37 -85.89 72.52 143.43 169.83 60.24 -98.51 -141.29 -169.48 
DOCKED: USER  keepresnum = 1 
DOCKED: USER  
DOCKED: REMARK  Name = 
DOCKED: REMARK  9 active torsions:
DOCKED: REMARK  status: ('A' for Active; 'I' for Inactive)
DOCKED: REMARK    1  A    between atoms: C_2  and  C_5
DOCKED: REMARK    2  A    between atoms: N_3  and  O_4
DOCKED: REMARK    3  A    between atoms: C_5  and  C_6
DOCKED: REMARK    4  A    between atoms: C_6  and  C_7
DOCKED: REMARK    5  A    between atoms: C_7  and  C_8
DOCKED: REMARK    6  A    between atoms: C_8  and  C_9
DOCKED: REMARK    7  A    between atoms: C_9  and  C_10
DOCKED: REMARK    8  A    between atoms: C_10  and  C_11
DOCKED: REMARK    9  A    between atoms: N_12  and  C_13
DOCKED: REMARK                            x       y       z     vdW  Elec       q    Type
DOCKED: REMARK                         _______ _______ _______ _____ _____    ______ ____
DOCKED: USER                              x       y       z     vdW  Elec       q    Type
DOCKED: USER                           _______ _______ _______ _____ _____    ______ ____
DOCKED: ROOT
DOCKED: ATOM      1  C   UNL     1      27.138 -16.318  -0.596 -0.42 -0.00    +0.000 C 
DOCKED: ENDROOT
DOCKED: BRANCH   1   2
DOCKED: ATOM      2  C   UNL     1      26.246 -17.519  -0.244 -0.59 -0.00    +0.000 C 
DOCKED: BRANCH   2   3
DOCKED: ATOM      3  C   UNL     1      25.203 -17.771  -1.343 -0.64 -0.00    +0.000 C 
DOCKED: BRANCH   3   4
DOCKED: ATOM      4  C   UNL     1      23.763 -17.808  -0.800 -0.78 -0.00    +0.000 C 
DOCKED: BRANCH   4   5
DOCKED: ATOM      5  C   UNL     1      22.992 -19.097  -1.129 -0.79 -0.00    +0.000 C 
DOCKED: BRANCH   5   7
DOCKED: ATOM      6  O   UNL     1      21.034 -17.793  -0.709 -2.13 -0.00    +0.000 OA
DOCKED: ATOM      7  C   UNL     1      21.507 -18.880  -1.136 -0.79 -0.00    +0.000 C 
DOCKED: ATOM      8  N   UNL     1      20.626 -19.908  -1.600 -0.73 -0.00    +0.000 N 
DOCKED: ATOM      9  H   UNL     1      21.000 -20.753  -1.940 -0.31 -0.00    +0.000 HD
DOCKED: BRANCH   8  10
DOCKED: ATOM     10  O   UNL     1      19.284 -19.727  -1.578 -1.27 -0.00    +0.000 OA
DOCKED: ATOM     11  H   UNL     1      19.084 -18.825  -1.285 -0.50 -0.00    +0.000 HD
DOCKED: ENDBRANCH   8  10
DOCKED: ENDBRANCH   5   7
DOCKED: ENDBRANCH   4   5
DOCKED: ENDBRANCH   3   4
DOCKED: ENDBRANCH   2   3
DOCKED: ENDBRANCH   1   2
DOCKED: BRANCH   1  12
DOCKED: ATOM     12  C   UNL     1      26.459 -14.979  -0.276 -0.32 -0.00    +0.000 C 
DOCKED: BRANCH  12  13
DOCKED: ATOM     13  C   UNL     1      27.260 -14.181   0.712 -0.29 -0.00    +0.000 C 
DOCKED: ATOM     14  N   UNL     1      27.763 -14.808   1.903 -0.27 -0.00    +0.000 N 
DOCKED: ATOM     15  O   UNL     1      27.479 -12.960   0.489 -0.21 -0.00    +0.000 OA
DOCKED: ATOM     16  H   UNL     1      27.853 -15.787   1.907 -0.74 -0.00    +0.000 HD
DOCKED: BRANCH  14  17
DOCKED: ATOM     17  C   UNL     1      28.142 -14.091   3.091 -0.35 -0.00    +0.000 A 
DOCKED: ATOM     18  C   UNL     1      29.403 -13.483   3.160 -0.19 -0.00    +0.000 A 
DOCKED: ATOM     19  C   UNL     1      29.796 -12.813   4.319 -0.17 -0.00    +0.000 A 
DOCKED: ATOM     20  C   UNL     1      28.928 -12.768   5.410 -0.32 -0.00    +0.000 A 
DOCKED: ATOM     21  N   UNL     1      27.718 -13.382   5.343 -0.50 -0.00    +0.000 NA
DOCKED: ATOM     22  C   UNL     1      27.309 -14.038   4.224 -0.50 -0.00    +0.000 A 
DOCKED: ENDBRANCH  14  17
DOCKED: ENDBRANCH  12  13
DOCKED: ENDBRANCH   1  12
DOCKED: TORSDOF 9
DOCKED: TER
DOCKED: ENDMDL
________________________________________________________________________________


	BEGINNING GENETIC ALGORITHM DOCKING 71 of 100
Run: 71 Seed: 1099975674 2001238429 [ Run 71 of 100 GA/GALS ]
Beginning LAMARCKIAN GENETIC ALGORITHM (LGA), with a maximum of 2500000 energy evaluations.

Final-Value: -14.228


	FINAL GENETIC ALGORITHM DOCKED STATE
	_______________________________________________


Detailed state:  trans 25.161 -14.445 0.432 quatxyzw -0.315291 0.457163 0.831540 0.011600 center -0.121 -0.193 0.463 ntor 9 -33.3439 171.4064 179.5037 90.2106 -148.4124 76.4136 90.6839 22.0099 -4.0230
State:	 25.161 -14.445   0.432  -0.315  0.457  0.832 178.671    -33.34  171.41  179.50   90.21 -148.41   76.41   90.68   22.01   -4.02

DOCKED: MODEL       71
DOCKED: USER    Run = 71
DOCKED: USER    DPF = ligand_dock.biased.dpf
DOCKED: USER  
DOCKED: USER    Estimated Free Energy of Binding    =  -10.37 kcal/mol  [=(1)+(2)+(3)-(4)]
DOCKED: USER    Estimated Inhibition Constant, Ki   =   25.24 nM (nanomolar)  [Temperature = 298.15 K]
DOCKED: USER    
DOCKED: USER    (1) Final Intermolecular Energy     =  -13.05 kcal/mol
DOCKED: USER        vdW + Hbond + desolv Energy     =  -13.05 kcal/mol
DOCKED: USER        Electrostatic Energy            =   +0.00 kcal/mol
DOCKED: USER    (2) Final Total Internal Energy     =   -1.18 kcal/mol
DOCKED: USER    (3) Torsional Free Energy           =   +2.68 kcal/mol
DOCKED: USER    (4) Unbound System's Energy  [=(2)] =   -1.18 kcal/mol
DOCKED: USER    
DOCKED: USER    
DOCKED: USER    NEWDPF move ligand.pdbqt
DOCKED: USER    NEWDPF about -0.121000 -0.193000 0.463000
DOCKED: USER    NEWDPF tran0 25.160573 -14.444807 0.432098
DOCKED: USER    NEWDPF quaternion0 -0.315291 0.457163 0.831540 0.011600
DOCKED: USER    NEWDPF axisangle0 -0.315313 0.457194 0.831596 178.670658
DOCKED: USER    NEWDPF quat0 -0.315313 0.457194 0.831596 178.670658
DOCKED: USER    NEWDPF dihe0 -33.34 171.41 179.50 90.21 -148.41 76.41 90.68 22.01 -4.02 
DOCKED: USER  keepresnum = 1 
DOCKED: USER  
DOCKED: REMARK  Name = 
DOCKED: REMARK  9 active torsions:
DOCKED: REMARK  status: ('A' for Active; 'I' for Inactive)
DOCKED: REMARK    1  A    between atoms: C_2  and  C_5
DOCKED: REMARK    2  A    between atoms: N_3  and  O_4
DOCKED: REMARK    3  A    between atoms: C_5  and  C_6
DOCKED: REMARK    4  A    between atoms: C_6  and  C_7
DOCKED: REMARK    5  A    between atoms: C_7  and  C_8
DOCKED: REMARK    6  A    between atoms: C_8  and  C_9
DOCKED: REMARK    7  A    between atoms: C_9  and  C_10
DOCKED: REMARK    8  A    between atoms: C_10  and  C_11
DOCKED: REMARK    9  A    between atoms: N_12  and  C_13
DOCKED: REMARK                            x       y       z     vdW  Elec       q    Type
DOCKED: REMARK                         _______ _______ _______ _____ _____    ______ ____
DOCKED: USER                              x       y       z     vdW  Elec       q    Type
DOCKED: USER                           _______ _______ _______ _____ _____    ______ ____
DOCKED: ROOT
DOCKED: ATOM      1  C   UNL     1      26.488 -16.575  -1.573 -0.49 -0.00    +0.000 C 
DOCKED: ENDROOT
DOCKED: BRANCH   1   2
DOCKED: ATOM      2  C   UNL     1      25.336 -16.771  -0.575 -0.50 -0.00    +0.000 C 
DOCKED: BRANCH   2   3
DOCKED: ATOM      3  C   UNL     1      25.159 -18.255  -0.222 -0.69 -0.00    +0.000 C 
DOCKED: BRANCH   3   4
DOCKED: ATOM      4  C   UNL     1      23.872 -18.857  -0.813 -0.76 -0.00    +0.000 C 
DOCKED: BRANCH   4   5
DOCKED: ATOM      5  C   UNL     1      22.605 -18.587   0.017 -0.77 -0.00    +0.000 C 
DOCKED: BRANCH   5   7
DOCKED: ATOM      6  O   UNL     1      20.743 -17.473  -0.985 -2.05 -0.00    +0.000 OA
DOCKED: ATOM      7  C   UNL     1      21.369 -18.557  -0.834 -0.83 -0.00    +0.000 C 
DOCKED: ATOM      8  N   UNL     1      20.884 -19.753  -1.452 -0.76 -0.00    +0.000 N 
DOCKED: ATOM      9  H   UNL     1      21.379 -20.596  -1.337 -0.16 -0.00    +0.000 HD
DOCKED: BRANCH   8  10
DOCKED: ATOM     10  O   UNL     1      19.752 -19.735  -2.194 -1.76 -0.00    +0.000 OA
DOCKED: ATOM     11  H   UNL     1      19.133 -19.085  -1.825 -0.56 -0.00    +0.000 HD
DOCKED: ENDBRANCH   8  10
DOCKED: ENDBRANCH   5   7
DOCKED: ENDBRANCH   4   5
DOCKED: ENDBRANCH   3   4
DOCKED: ENDBRANCH   2   3
DOCKED: ENDBRANCH   1   2
DOCKED: BRANCH   1  12
DOCKED: ATOM     12  C   UNL     1      27.832 -16.344  -0.869 -0.37 -0.00    +0.000 C 
DOCKED: BRANCH  12  13
DOCKED: ATOM     13  C   UNL     1      27.913 -14.966  -0.279 -0.26 -0.00    +0.000 C 
DOCKED: ATOM     14  N   UNL     1      28.014 -14.796   1.144 -0.27 -0.00    +0.000 N 
DOCKED: ATOM     15  O   UNL     1      27.882 -13.964  -1.043 -0.16 -0.00    +0.000 OA
DOCKED: ATOM     16  H   UNL     1      28.343 -15.555   1.676 -1.03 -0.00    +0.000 HD
DOCKED: BRANCH  14  17
DOCKED: ATOM     17  C   UNL     1      27.664 -13.586   1.838 -0.26 -0.00    +0.000 A 
DOCKED: ATOM     18  C   UNL     1      26.724 -12.712   1.274 -0.29 -0.00    +0.000 A 
DOCKED: ATOM     19  C   UNL     1      26.401 -11.519   1.921 -0.33 +0.00    +0.000 A 
DOCKED: ATOM     20  C   UNL     1      27.031 -11.200   3.124 -0.23 +0.00    +0.000 A 
DOCKED: ATOM     21  N   UNL     1      27.959 -12.043   3.650 -0.26 +0.00    +0.000 NA
DOCKED: ATOM     22  C   UNL     1      28.290 -13.213   3.041 -0.26 -0.00    +0.000 A 
DOCKED: ENDBRANCH  14  17
DOCKED: ENDBRANCH  12  13
DOCKED: ENDBRANCH   1  12
DOCKED: TORSDOF 9
DOCKED: TER
DOCKED: ENDMDL
________________________________________________________________________________


	BEGINNING GENETIC ALGORITHM DOCKING 72 of 100
Run: 72 Seed: 435367583 1361243812 [ Run 72 of 100 GA/GALS ]
Beginning LAMARCKIAN GENETIC ALGORITHM (LGA), with a maximum of 2500000 energy evaluations.

Final-Value: -13.733


	FINAL GENETIC ALGORITHM DOCKED STATE
	_______________________________________________


Detailed state:  trans 27.204 -14.340 -2.729 quatxyzw 0.891140 -0.419172 -0.074073 0.157094 center -0.121 -0.193 0.463 ntor 9 3.6326 -99.7841 -175.7571 23.9098 70.3255 41.7270 153.2027 -141.5672 -108.0202
State:	 27.204 -14.340  -2.729   0.902 -0.424 -0.075 161.923      3.63  -99.78 -175.76   23.91   70.33   41.73  153.20 -141.57 -108.02

DOCKED: MODEL       72
DOCKED: USER    Run = 72
DOCKED: USER    DPF = ligand_dock.biased.dpf
DOCKED: USER  
DOCKED: USER    Estimated Free Energy of Binding    =   -9.77 kcal/mol  [=(1)+(2)+(3)-(4)]
DOCKED: USER    Estimated Inhibition Constant, Ki   =   69.16 nM (nanomolar)  [Temperature = 298.15 K]
DOCKED: USER    
DOCKED: USER    (1) Final Intermolecular Energy     =  -12.45 kcal/mol
DOCKED: USER        vdW + Hbond + desolv Energy     =  -12.45 kcal/mol
DOCKED: USER        Electrostatic Energy            =   +0.00 kcal/mol
DOCKED: USER    (2) Final Total Internal Energy     =   -1.28 kcal/mol
DOCKED: USER    (3) Torsional Free Energy           =   +2.68 kcal/mol
DOCKED: USER    (4) Unbound System's Energy  [=(2)] =   -1.28 kcal/mol
DOCKED: USER    
DOCKED: USER    
DOCKED: USER    NEWDPF move ligand.pdbqt
DOCKED: USER    NEWDPF about -0.121000 -0.193000 0.463000
DOCKED: USER    NEWDPF tran0 27.203615 -14.340424 -2.729073
DOCKED: USER    NEWDPF quaternion0 0.891140 -0.419172 -0.074073 0.157094
DOCKED: USER    NEWDPF axisangle0 0.902343 -0.424442 -0.075004 161.923441
DOCKED: USER    NEWDPF quat0 0.902343 -0.424442 -0.075004 161.923441
DOCKED: USER    NEWDPF dihe0 3.63 -99.78 -175.76 23.91 70.33 41.73 153.20 -141.57 -108.02 
DOCKED: USER  keepresnum = 1 
DOCKED: USER  
DOCKED: REMARK  Name = 
DOCKED: REMARK  9 active torsions:
DOCKED: REMARK  status: ('A' for Active; 'I' for Inactive)
DOCKED: REMARK    1  A    between atoms: C_2  and  C_5
DOCKED: REMARK    2  A    between atoms: N_3  and  O_4
DOCKED: REMARK    3  A    between atoms: C_5  and  C_6
DOCKED: REMARK    4  A    between atoms: C_6  and  C_7
DOCKED: REMARK    5  A    between atoms: C_7  and  C_8
DOCKED: REMARK    6  A    between atoms: C_8  and  C_9
DOCKED: REMARK    7  A    between atoms: C_9  and  C_10
DOCKED: REMARK    8  A    between atoms: C_10  and  C_11
DOCKED: REMARK    9  A    between atoms: N_12  and  C_13
DOCKED: REMARK                            x       y       z     vdW  Elec       q    Type
DOCKED: REMARK                         _______ _______ _______ _____ _____    ______ ____
DOCKED: USER                              x       y       z     vdW  Elec       q    Type
DOCKED: USER                           _______ _______ _______ _____ _____    ______ ____
DOCKED: ROOT
DOCKED: ATOM      1  C   UNL     1      28.107 -15.451   0.146 -0.27 -0.00    +0.000 C 
DOCKED: ENDROOT
DOCKED: BRANCH   1   2
DOCKED: ATOM      2  C   UNL     1      27.490 -16.213  -1.037 -0.38 -0.00    +0.000 C 
DOCKED: BRANCH   2   3
DOCKED: ATOM      3  C   UNL     1      25.971 -16.361  -0.865 -0.51 -0.00    +0.000 C 
DOCKED: BRANCH   3   4
DOCKED: ATOM      4  C   UNL     1      25.439 -17.703  -1.397 -0.60 -0.00    +0.000 C 
DOCKED: BRANCH   4   5
DOCKED: ATOM      5  C   UNL     1      24.418 -18.392  -0.477 -0.74 -0.00    +0.000 C 
DOCKED: BRANCH   5   7
DOCKED: ATOM      6  O   UNL     1      22.842 -16.756  -1.220 -0.57 -0.00    +0.000 OA
DOCKED: ATOM      7  C   UNL     1      23.020 -17.896  -0.714 -0.81 -0.00    +0.000 C 
DOCKED: ATOM      8  N   UNL     1      21.894 -18.697  -0.345 -0.76 -0.00    +0.000 N 
DOCKED: ATOM      9  H   UNL     1      22.038 -19.590   0.044 -0.32 -0.00    +0.000 HD
DOCKED: BRANCH   8  10
DOCKED: ATOM     10  O   UNL     1      20.633 -18.239  -0.529 -2.13 -0.00    +0.000 OA
DOCKED: ATOM     11  H   UNL     1      20.663 -17.377  -0.971 -0.14 -0.00    +0.000 HD
DOCKED: ENDBRANCH   8  10
DOCKED: ENDBRANCH   5   7
DOCKED: ENDBRANCH   4   5
DOCKED: ENDBRANCH   3   4
DOCKED: ENDBRANCH   2   3
DOCKED: ENDBRANCH   1   2
DOCKED: BRANCH   1  12
DOCKED: ATOM     12  C   UNL     1      27.111 -14.480   0.794 -0.26 -0.00    +0.000 C 
DOCKED: BRANCH  12  13
DOCKED: ATOM     13  C   UNL     1      27.745 -13.713   1.918 -0.30 -0.00    +0.000 C 
DOCKED: ATOM     14  N   UNL     1      28.515 -14.403   2.915 -0.31 -0.00    +0.000 N 
DOCKED: ATOM     15  O   UNL     1      27.587 -12.464   1.980 -0.26 -0.00    +0.000 OA
DOCKED: ATOM     16  H   UNL     1      28.878 -15.288   2.687 -1.95 -0.00    +0.000 HD
DOCKED: BRANCH  14  17
DOCKED: ATOM     17  C   UNL     1      28.789 -13.880   4.226 -0.38 -0.00    +0.000 A 
DOCKED: ATOM     18  C   UNL     1      27.859 -13.028   4.839 -0.42 -0.00    +0.000 A 
DOCKED: ATOM     19  C   UNL     1      28.127 -12.487   6.098 -0.39 +0.00    +0.000 A 
DOCKED: ATOM     20  C   UNL     1      29.333 -12.791   6.730 -0.33 -0.00    +0.000 A 
DOCKED: ATOM     21  N   UNL     1      30.238 -13.598   6.116 -0.30 -0.00    +0.000 NA
DOCKED: ATOM     22  C   UNL     1      30.000 -14.141   4.892 -0.31 -0.00    +0.000 A 
DOCKED: ENDBRANCH  14  17
DOCKED: ENDBRANCH  12  13
DOCKED: ENDBRANCH   1  12
DOCKED: TORSDOF 9
DOCKED: TER
DOCKED: ENDMDL
________________________________________________________________________________


	BEGINNING GENETIC ALGORITHM DOCKING 73 of 100
Run: 73 Seed: 835825988 64477748 [ Run 73 of 100 GA/GALS ]
Beginning LAMARCKIAN GENETIC ALGORITHM (LGA), with a maximum of 2500000 energy evaluations.

Final-Value: -14.414


	FINAL GENETIC ALGORITHM DOCKED STATE
	_______________________________________________


Detailed state:  trans 27.103 -15.945 -3.098 quatxyzw 0.755627 -0.637848 0.142810 0.042236 center -0.121 -0.193 0.463 ntor 9 13.9680 -35.2192 -179.7003 -171.2658 -167.4690 63.4529 118.9443 -89.2853 -121.3782
State:	 27.103 -15.945  -3.098   0.756 -0.638  0.143 175.159     13.97  -35.22 -179.70 -171.27 -167.47   63.45  118.94  -89.29 -121.38

DOCKED: MODEL       73
DOCKED: USER    Run = 73
DOCKED: USER    DPF = ligand_dock.biased.dpf
DOCKED: USER  
DOCKED: USER    Estimated Free Energy of Binding    =  -10.53 kcal/mol  [=(1)+(2)+(3)-(4)]
DOCKED: USER    Estimated Inhibition Constant, Ki   =   19.10 nM (nanomolar)  [Temperature = 298.15 K]
DOCKED: USER    
DOCKED: USER    (1) Final Intermolecular Energy     =  -13.22 kcal/mol
DOCKED: USER        vdW + Hbond + desolv Energy     =  -13.22 kcal/mol
DOCKED: USER        Electrostatic Energy            =   +0.00 kcal/mol
DOCKED: USER    (2) Final Total Internal Energy     =   -1.20 kcal/mol
DOCKED: USER    (3) Torsional Free Energy           =   +2.68 kcal/mol
DOCKED: USER    (4) Unbound System's Energy  [=(2)] =   -1.20 kcal/mol
DOCKED: USER    
DOCKED: USER    
DOCKED: USER    NEWDPF move ligand.pdbqt
DOCKED: USER    NEWDPF about -0.121000 -0.193000 0.463000
DOCKED: USER    NEWDPF tran0 27.102687 -15.944927 -3.098302
DOCKED: USER    NEWDPF quaternion0 0.755627 -0.637848 0.142810 0.042236
DOCKED: USER    NEWDPF axisangle0 0.756302 -0.638417 0.142938 175.158625
DOCKED: USER    NEWDPF quat0 0.756302 -0.638417 0.142938 175.158625
DOCKED: USER    NEWDPF dihe0 13.97 -35.22 -179.70 -171.27 -167.47 63.45 118.94 -89.29 -121.38 
DOCKED: USER  keepresnum = 1 
DOCKED: USER  
DOCKED: REMARK  Name = 
DOCKED: REMARK  9 active torsions:
DOCKED: REMARK  status: ('A' for Active; 'I' for Inactive)
DOCKED: REMARK    1  A    between atoms: C_2  and  C_5
DOCKED: REMARK    2  A    between atoms: N_3  and  O_4
DOCKED: REMARK    3  A    between atoms: C_5  and  C_6
DOCKED: REMARK    4  A    between atoms: C_6  and  C_7
DOCKED: REMARK    5  A    between atoms: C_7  and  C_8
DOCKED: REMARK    6  A    between atoms: C_8  and  C_9
DOCKED: REMARK    7  A    between atoms: C_9  and  C_10
DOCKED: REMARK    8  A    between atoms: C_10  and  C_11
DOCKED: REMARK    9  A    between atoms: N_12  and  C_13
DOCKED: REMARK                            x       y       z     vdW  Elec       q    Type
DOCKED: REMARK                         _______ _______ _______ _____ _____    ______ ____
DOCKED: USER                              x       y       z     vdW  Elec       q    Type
DOCKED: USER                           _______ _______ _______ _____ _____    ______ ____
DOCKED: ROOT
DOCKED: ATOM      1  C   UNL     1      26.987 -16.067   0.109 -0.33 -0.00    +0.000 C 
DOCKED: ENDROOT
DOCKED: BRANCH   1   2
DOCKED: ATOM      2  C   UNL     1      26.153 -16.844  -0.921 -0.55 -0.00    +0.000 C 
DOCKED: BRANCH   2   3
DOCKED: ATOM      3  C   UNL     1      24.655 -16.759  -0.593 -0.49 -0.00    +0.000 C 
DOCKED: BRANCH   3   4
DOCKED: ATOM      4  C   UNL     1      24.007 -18.143  -0.406 -0.77 -0.00    +0.000 C 
DOCKED: BRANCH   4   5
DOCKED: ATOM      5  C   UNL     1      23.198 -18.634  -1.619 -0.69 -0.00    +0.000 C 
DOCKED: BRANCH   5   7
DOCKED: ATOM      6  O   UNL     1      21.201 -17.688  -0.708 -1.95 -0.00    +0.000 OA
DOCKED: ATOM      7  C   UNL     1      21.722 -18.642  -1.347 -0.54 -0.00    +0.000 C 
DOCKED: ATOM      8  N   UNL     1      20.909 -19.734  -1.786 -0.71 -0.00    +0.000 N 
DOCKED: ATOM      9  H   UNL     1      21.318 -20.474  -2.290 -0.51 -0.00    +0.000 HD
DOCKED: BRANCH   8  10
DOCKED: ATOM     10  O   UNL     1      19.583 -19.759  -1.514 -1.60 -0.00    +0.000 OA
DOCKED: ATOM     11  H   UNL     1      19.297 -18.881  -1.217 -0.33 -0.00    +0.000 HD
DOCKED: ENDBRANCH   8  10
DOCKED: ENDBRANCH   5   7
DOCKED: ENDBRANCH   4   5
DOCKED: ENDBRANCH   3   4
DOCKED: ENDBRANCH   2   3
DOCKED: ENDBRANCH   1   2
DOCKED: BRANCH   1  12
DOCKED: ATOM     12  C   UNL     1      26.651 -14.570   0.118 -0.29 -0.00    +0.000 C 
DOCKED: BRANCH  12  13
DOCKED: ATOM     13  C   UNL     1      27.261 -13.878   1.302 -0.29 -0.00    +0.000 C 
DOCKED: ATOM     14  N   UNL     1      28.124 -14.603   2.193 -0.26 -0.00    +0.000 N 
DOCKED: ATOM     15  O   UNL     1      27.001 -12.662   1.509 -0.32 -0.00    +0.000 OA
DOCKED: ATOM     16  H   UNL     1      28.550 -15.423   1.857 -1.31 -0.00    +0.000 HD
DOCKED: BRANCH  14  17
DOCKED: ATOM     17  C   UNL     1      28.402 -14.204   3.547 -0.38 -0.00    +0.000 A 
DOCKED: ATOM     18  C   UNL     1      27.462 -13.437   4.250 -0.42 -0.00    +0.000 A 
DOCKED: ATOM     19  C   UNL     1      27.734 -13.016   5.552 -0.39 -0.00    +0.000 A 
DOCKED: ATOM     20  C   UNL     1      28.954 -13.353   6.139 -0.39 -0.00    +0.000 A 
DOCKED: ATOM     21  N   UNL     1      29.868 -14.075   5.440 -0.35 -0.00    +0.000 NA
DOCKED: ATOM     22  C   UNL     1      29.627 -14.501   4.171 -0.34 -0.00    +0.000 A 
DOCKED: ENDBRANCH  14  17
DOCKED: ENDBRANCH  12  13
DOCKED: ENDBRANCH   1  12
DOCKED: TORSDOF 9
DOCKED: TER
DOCKED: ENDMDL
________________________________________________________________________________


	BEGINNING GENETIC ALGORITHM DOCKING 74 of 100
Run: 74 Seed: 857156737 363793886 [ Run 74 of 100 GA/GALS ]
Beginning LAMARCKIAN GENETIC ALGORITHM (LGA), with a maximum of 2500000 energy evaluations.

Final-Value: -13.458


	FINAL GENETIC ALGORITHM DOCKED STATE
	_______________________________________________


Detailed state:  trans 27.504 -17.771 -2.855 quatxyzw -0.678330 0.329581 -0.650864 0.087295 center -0.121 -0.193 0.463 ntor 9 47.7476 7.3708 179.6735 177.4980 -98.5838 -43.4684 24.2251 -120.0458 11.4398
State:	 27.504 -17.771  -2.855  -0.681  0.331 -0.653 169.984     47.75    7.37  179.67  177.50  -98.58  -43.47   24.23 -120.05   11.44

DOCKED: MODEL       74
DOCKED: USER    Run = 74
DOCKED: USER    DPF = ligand_dock.biased.dpf
DOCKED: USER  
DOCKED: USER    Estimated Free Energy of Binding    =   -9.62 kcal/mol  [=(1)+(2)+(3)-(4)]
DOCKED: USER    Estimated Inhibition Constant, Ki   =   89.01 nM (nanomolar)  [Temperature = 298.15 K]
DOCKED: USER    
DOCKED: USER    (1) Final Intermolecular Energy     =  -12.30 kcal/mol
DOCKED: USER        vdW + Hbond + desolv Energy     =  -12.30 kcal/mol
DOCKED: USER        Electrostatic Energy            =   +0.00 kcal/mol
DOCKED: USER    (2) Final Total Internal Energy     =   -1.15 kcal/mol
DOCKED: USER    (3) Torsional Free Energy           =   +2.68 kcal/mol
DOCKED: USER    (4) Unbound System's Energy  [=(2)] =   -1.15 kcal/mol
DOCKED: USER    
DOCKED: USER    
DOCKED: USER    NEWDPF move ligand.pdbqt
DOCKED: USER    NEWDPF about -0.121000 -0.193000 0.463000
DOCKED: USER    NEWDPF tran0 27.503628 -17.770582 -2.854897
DOCKED: USER    NEWDPF quaternion0 -0.678330 0.329581 -0.650864 0.087295
DOCKED: USER    NEWDPF axisangle0 -0.680930 0.330844 -0.653358 169.983984
DOCKED: USER    NEWDPF quat0 -0.680930 0.330844 -0.653358 169.983984
DOCKED: USER    NEWDPF dihe0 47.75 7.37 179.67 177.50 -98.58 -43.47 24.23 -120.05 11.44 
DOCKED: USER  keepresnum = 1 
DOCKED: USER  
DOCKED: REMARK  Name = 
DOCKED: REMARK  9 active torsions:
DOCKED: REMARK  status: ('A' for Active; 'I' for Inactive)
DOCKED: REMARK    1  A    between atoms: C_2  and  C_5
DOCKED: REMARK    2  A    between atoms: N_3  and  O_4
DOCKED: REMARK    3  A    between atoms: C_5  and  C_6
DOCKED: REMARK    4  A    between atoms: C_6  and  C_7
DOCKED: REMARK    5  A    between atoms: C_7  and  C_8
DOCKED: REMARK    6  A    between atoms: C_8  and  C_9
DOCKED: REMARK    7  A    between atoms: C_9  and  C_10
DOCKED: REMARK    8  A    between atoms: C_10  and  C_11
DOCKED: REMARK    9  A    between atoms: N_12  and  C_13
DOCKED: REMARK                            x       y       z     vdW  Elec       q    Type
DOCKED: REMARK                         _______ _______ _______ _____ _____    ______ ____
DOCKED: USER                              x       y       z     vdW  Elec       q    Type
DOCKED: USER                           _______ _______ _______ _____ _____    ______ ____
DOCKED: ROOT
DOCKED: ATOM      1  C   UNL     1      25.288 -15.787  -1.642 -0.48 -0.00    +0.000 C 
DOCKED: ENDROOT
DOCKED: BRANCH   1   2
DOCKED: ATOM      2  C   UNL     1      25.293 -17.322  -1.687 -0.62 -0.00    +0.000 C 
DOCKED: BRANCH   2   3
DOCKED: ATOM      3  C   UNL     1      24.876 -17.914  -0.333 -0.71 -0.00    +0.000 C 
DOCKED: BRANCH   3   4
DOCKED: ATOM      4  C   UNL     1      23.781 -18.988  -0.464 -0.61 -0.00    +0.000 C 
DOCKED: BRANCH   4   5
DOCKED: ATOM      5  C   UNL     1      22.795 -18.752  -1.619 -0.59 -0.00    +0.000 C 
DOCKED: BRANCH   5   7
DOCKED: ATOM      6  O   UNL     1      20.955 -17.530  -0.707 -2.09 -0.00    +0.000 OA
DOCKED: ATOM      7  C   UNL     1      21.377 -18.636  -1.137 -0.72 -0.00    +0.000 C 
DOCKED: ATOM      8  N   UNL     1      20.515 -19.777  -1.141 -0.81 -0.00    +0.000 N 
DOCKED: ATOM      9  H   UNL     1      20.846 -20.638  -1.484 -0.23 -0.00    +0.000 HD
DOCKED: BRANCH   8  10
DOCKED: ATOM     10  O   UNL     1      19.246 -19.683  -0.677 -1.07 -0.00    +0.000 OA
DOCKED: ATOM     11  H   UNL     1      18.819 -18.902  -1.061 -0.56 -0.00    +0.000 HD
DOCKED: ENDBRANCH   8  10
DOCKED: ENDBRANCH   5   7
DOCKED: ENDBRANCH   4   5
DOCKED: ENDBRANCH   3   4
DOCKED: ENDBRANCH   2   3
DOCKED: ENDBRANCH   1   2
DOCKED: BRANCH   1  12
DOCKED: ATOM     12  C   UNL     1      25.132 -15.167  -3.037 -0.46 -0.00    +0.000 C 
DOCKED: BRANCH  12  13
DOCKED: ATOM     13  C   UNL     1      26.237 -15.603  -3.957 -0.53 -0.00    +0.000 C 
DOCKED: ATOM     14  N   UNL     1      27.510 -15.991  -3.418 -0.30 -0.00    +0.000 N 
DOCKED: ATOM     15  O   UNL     1      26.036 -15.616  -5.201 -1.15 +0.00    +0.000 OA
DOCKED: ATOM     16  H   UNL     1      27.547 -16.268  -2.475 -0.01 -0.00    +0.000 HD
DOCKED: BRANCH  14  17
DOCKED: ATOM     17  C   UNL     1      28.735 -16.000  -4.172 -0.25 -0.00    +0.000 A 
DOCKED: ATOM     18  C   UNL     1      28.875 -15.145  -5.274 -0.30 -0.00    +0.000 A 
DOCKED: ATOM     19  C   UNL     1      30.046 -15.167  -6.034 -0.25 -0.00    +0.000 A 
DOCKED: ATOM     20  C   UNL     1      31.065 -16.057  -5.693 -0.16 -0.00    +0.000 A 
DOCKED: ATOM     21  N   UNL     1      30.909 -16.898  -4.637 -0.17 -0.00    +0.000 NA
DOCKED: ATOM     22  C   UNL     1      29.780 -16.894  -3.879 -0.22 -0.00    +0.000 A 
DOCKED: ENDBRANCH  14  17
DOCKED: ENDBRANCH  12  13
DOCKED: ENDBRANCH   1  12
DOCKED: TORSDOF 9
DOCKED: TER
DOCKED: ENDMDL
________________________________________________________________________________


	BEGINNING GENETIC ALGORITHM DOCKING 75 of 100
Run: 75 Seed: 982763336 1390612597 [ Run 75 of 100 GA/GALS ]
Beginning LAMARCKIAN GENETIC ALGORITHM (LGA), with a maximum of 2500000 energy evaluations.

Final-Value: -14.721


	FINAL GENETIC ALGORITHM DOCKED STATE
	_______________________________________________


Detailed state:  trans 24.171 -14.956 -0.373 quatxyzw -0.545349 0.272390 0.780226 -0.140162 center -0.121 -0.193 0.463 ntor 9 -11.5809 161.0651 178.5174 71.9721 -172.4870 31.5886 157.5429 70.5256 -38.4369
State:	 24.171 -14.956  -0.373  -0.551  0.275  0.788 -163.885    -11.58  161.07  178.52   71.97 -172.49   31.59  157.54   70.53  -38.44

DOCKED: MODEL       75
DOCKED: USER    Run = 75
DOCKED: USER    DPF = ligand_dock.biased.dpf
DOCKED: USER  
DOCKED: USER    Estimated Free Energy of Binding    =  -10.75 kcal/mol  [=(1)+(2)+(3)-(4)]
DOCKED: USER    Estimated Inhibition Constant, Ki   =   13.19 nM (nanomolar)  [Temperature = 298.15 K]
DOCKED: USER    
DOCKED: USER    (1) Final Intermolecular Energy     =  -13.43 kcal/mol
DOCKED: USER        vdW + Hbond + desolv Energy     =  -13.43 kcal/mol
DOCKED: USER        Electrostatic Energy            =   +0.00 kcal/mol
DOCKED: USER    (2) Final Total Internal Energy     =   -1.29 kcal/mol
DOCKED: USER    (3) Torsional Free Energy           =   +2.68 kcal/mol
DOCKED: USER    (4) Unbound System's Energy  [=(2)] =   -1.29 kcal/mol
DOCKED: USER    
DOCKED: USER    
DOCKED: USER    NEWDPF move ligand.pdbqt
DOCKED: USER    NEWDPF about -0.121000 -0.193000 0.463000
DOCKED: USER    NEWDPF tran0 24.170528 -14.955548 -0.372635
DOCKED: USER    NEWDPF quaternion0 -0.545349 0.272390 0.780226 -0.140162
DOCKED: USER    NEWDPF axisangle0 -0.550787 0.275106 0.788005 -163.885505
DOCKED: USER    NEWDPF quat0 -0.550787 0.275106 0.788005 -163.885505
DOCKED: USER    NEWDPF dihe0 -11.58 161.07 178.52 71.97 -172.49 31.59 157.54 70.53 -38.44 
DOCKED: USER  keepresnum = 1 
DOCKED: USER  
DOCKED: REMARK  Name = 
DOCKED: REMARK  9 active torsions:
DOCKED: REMARK  status: ('A' for Active; 'I' for Inactive)
DOCKED: REMARK    1  A    between atoms: C_2  and  C_5
DOCKED: REMARK    2  A    between atoms: N_3  and  O_4
DOCKED: REMARK    3  A    between atoms: C_5  and  C_6
DOCKED: REMARK    4  A    between atoms: C_6  and  C_7
DOCKED: REMARK    5  A    between atoms: C_7  and  C_8
DOCKED: REMARK    6  A    between atoms: C_8  and  C_9
DOCKED: REMARK    7  A    between atoms: C_9  and  C_10
DOCKED: REMARK    8  A    between atoms: C_10  and  C_11
DOCKED: REMARK    9  A    between atoms: N_12  and  C_13
DOCKED: REMARK                            x       y       z     vdW  Elec       q    Type
DOCKED: REMARK                         _______ _______ _______ _____ _____    ______ ____
DOCKED: USER                              x       y       z     vdW  Elec       q    Type
DOCKED: USER                           _______ _______ _______ _____ _____    ______ ____
DOCKED: ROOT
DOCKED: ATOM      1  C   UNL     1      26.669 -16.252  -1.920 -0.44 -0.00    +0.000 C 
DOCKED: ENDROOT
DOCKED: BRANCH   1   2
DOCKED: ATOM      2  C   UNL     1      25.224 -16.763  -1.813 -0.62 -0.00    +0.000 C 
DOCKED: BRANCH   2   3
DOCKED: ATOM      3  C   UNL     1      25.066 -17.725  -0.626 -0.70 -0.00    +0.000 C 
DOCKED: BRANCH   3   4
DOCKED: ATOM      4  C   UNL     1      23.906 -18.718  -0.815 -0.78 -0.00    +0.000 C 
DOCKED: BRANCH   4   5
DOCKED: ATOM      5  C   UNL     1      22.670 -18.424   0.051 -0.77 -0.00    +0.000 C 
DOCKED: BRANCH   5   7
DOCKED: ATOM      6  O   UNL     1      20.629 -17.498  -0.778 -2.09 +0.00    +0.000 OA
DOCKED: ATOM      7  C   UNL     1      21.396 -18.498  -0.739 -0.85 -0.00    +0.000 C 
DOCKED: ATOM      8  N   UNL     1      21.037 -19.700  -1.426 -0.74 -0.00    +0.000 N 
DOCKED: ATOM      9  H   UNL     1      21.642 -20.476  -1.399 -0.26 -0.00    +0.000 HD
DOCKED: BRANCH   8  10
DOCKED: ATOM     10  O   UNL     1      19.873 -19.779  -2.114 -1.87 -0.00    +0.000 OA
DOCKED: ATOM     11  H   UNL     1      19.316 -19.016  -1.897 -0.43 -0.00    +0.000 HD
DOCKED: ENDBRANCH   8  10
DOCKED: ENDBRANCH   5   7
DOCKED: ENDBRANCH   4   5
DOCKED: ENDBRANCH   3   4
DOCKED: ENDBRANCH   2   3
DOCKED: ENDBRANCH   1   2
DOCKED: BRANCH   1  12
DOCKED: ATOM     12  C   UNL     1      27.412 -16.330  -0.579 -0.40 -0.00    +0.000 C 
DOCKED: BRANCH  12  13
DOCKED: ATOM     13  C   UNL     1      27.630 -14.964   0.006 -0.29 -0.00    +0.000 C 
DOCKED: ATOM     14  N   UNL     1      27.995 -14.824   1.389 -0.27 -0.00    +0.000 N 
DOCKED: ATOM     15  O   UNL     1      27.481 -13.947  -0.724 -0.21 -0.00    +0.000 OA
DOCKED: ATOM     16  H   UNL     1      28.400 -15.598   1.840 -1.17 -0.00    +0.000 HD
DOCKED: BRANCH  14  17
DOCKED: ATOM     17  C   UNL     1      27.806 -13.621   2.154 -0.27 -0.00    +0.000 A 
DOCKED: ATOM     18  C   UNL     1      26.812 -12.708   1.774 -0.30 -0.00    +0.000 A 
DOCKED: ATOM     19  C   UNL     1      26.639 -11.522   2.488 -0.26 +0.00    +0.000 A 
DOCKED: ATOM     20  C   UNL     1      27.475 -11.248   3.571 -0.26 +0.00    +0.000 A 
DOCKED: ATOM     21  N   UNL     1      28.452 -12.128   3.916 -0.22 -0.00    +0.000 NA
DOCKED: ATOM     22  C   UNL     1      28.638 -13.292   3.239 -0.25 -0.00    +0.000 A 
DOCKED: ENDBRANCH  14  17
DOCKED: ENDBRANCH  12  13
DOCKED: ENDBRANCH   1  12
DOCKED: TORSDOF 9
DOCKED: TER
DOCKED: ENDMDL
________________________________________________________________________________


	BEGINNING GENETIC ALGORITHM DOCKING 76 of 100
Run: 76 Seed: 1609920064 725186636 [ Run 76 of 100 GA/GALS ]
Beginning LAMARCKIAN GENETIC ALGORITHM (LGA), with a maximum of 2500000 energy evaluations.

Final-Value: -12.935


	FINAL GENETIC ALGORITHM DOCKED STATE
	_______________________________________________


Detailed state:  trans 27.319 -17.987 1.205 quatxyzw -0.178307 -0.423316 0.883065 0.095953 center -0.121 -0.193 0.463 ntor 9 -179.4150 -69.5344 160.3938 177.1428 -171.9145 -41.3151 -52.0170 2.4639 -78.5789
State:	 27.319 -17.987   1.205  -0.179 -0.425  0.887 168.988   -179.41  -69.53  160.39  177.14 -171.91  -41.32  -52.02    2.46  -78.58

DOCKED: MODEL       76
DOCKED: USER    Run = 76
DOCKED: USER    DPF = ligand_dock.biased.dpf
DOCKED: USER  
DOCKED: USER    Estimated Free Energy of Binding    =   -9.63 kcal/mol  [=(1)+(2)+(3)-(4)]
DOCKED: USER    Estimated Inhibition Constant, Ki   =   87.16 nM (nanomolar)  [Temperature = 298.15 K]
DOCKED: USER    
DOCKED: USER    (1) Final Intermolecular Energy     =  -12.32 kcal/mol
DOCKED: USER        vdW + Hbond + desolv Energy     =  -12.32 kcal/mol
DOCKED: USER        Electrostatic Energy            =   +0.00 kcal/mol
DOCKED: USER    (2) Final Total Internal Energy     =   -0.62 kcal/mol
DOCKED: USER    (3) Torsional Free Energy           =   +2.68 kcal/mol
DOCKED: USER    (4) Unbound System's Energy  [=(2)] =   -0.62 kcal/mol
DOCKED: USER    
DOCKED: USER    
DOCKED: USER    NEWDPF move ligand.pdbqt
DOCKED: USER    NEWDPF about -0.121000 -0.193000 0.463000
DOCKED: USER    NEWDPF tran0 27.318622 -17.986726 1.205340
DOCKED: USER    NEWDPF quaternion0 -0.178307 -0.423316 0.883065 0.095953
DOCKED: USER    NEWDPF axisangle0 -0.179134 -0.425278 0.887158 168.987620
DOCKED: USER    NEWDPF quat0 -0.179134 -0.425278 0.887158 168.987620
DOCKED: USER    NEWDPF dihe0 -179.41 -69.53 160.39 177.14 -171.91 -41.32 -52.02 2.46 -78.58 
DOCKED: USER  keepresnum = 1 
DOCKED: USER  
DOCKED: REMARK  Name = 
DOCKED: REMARK  9 active torsions:
DOCKED: REMARK  status: ('A' for Active; 'I' for Inactive)
DOCKED: REMARK    1  A    between atoms: C_2  and  C_5
DOCKED: REMARK    2  A    between atoms: N_3  and  O_4
DOCKED: REMARK    3  A    between atoms: C_5  and  C_6
DOCKED: REMARK    4  A    between atoms: C_6  and  C_7
DOCKED: REMARK    5  A    between atoms: C_7  and  C_8
DOCKED: REMARK    6  A    between atoms: C_8  and  C_9
DOCKED: REMARK    7  A    between atoms: C_9  and  C_10
DOCKED: REMARK    8  A    between atoms: C_10  and  C_11
DOCKED: REMARK    9  A    between atoms: N_12  and  C_13
DOCKED: REMARK                            x       y       z     vdW  Elec       q    Type
DOCKED: REMARK                         _______ _______ _______ _____ _____    ______ ____
DOCKED: USER                              x       y       z     vdW  Elec       q    Type
DOCKED: USER                           _______ _______ _______ _____ _____    ______ ____
DOCKED: ROOT
DOCKED: ATOM      1  C   UNL     1      27.257 -15.179  -0.354 -0.32 -0.00    +0.000 C 
DOCKED: ENDROOT
DOCKED: BRANCH   1   2
DOCKED: ATOM      2  C   UNL     1      27.008 -16.595  -0.897 -0.46 -0.00    +0.000 C 
DOCKED: BRANCH   2   3
DOCKED: ATOM      3  C   UNL     1      25.848 -17.273  -0.155 -0.48 -0.00    +0.000 C 
DOCKED: BRANCH   3   4
DOCKED: ATOM      4  C   UNL     1      24.838 -17.936  -1.108 -0.71 -0.00    +0.000 C 
DOCKED: BRANCH   4   5
DOCKED: ATOM      5  C   UNL     1      23.508 -17.177  -1.253 -0.63 -0.00    +0.000 C 
DOCKED: BRANCH   5   7
DOCKED: ATOM      6  O   UNL     1      22.522 -19.160  -0.353 -0.83 -0.00    +0.000 OA
DOCKED: ATOM      7  C   UNL     1      22.331 -18.022  -0.859 -0.79 -0.00    +0.000 C 
DOCKED: ATOM      8  N   UNL     1      20.997 -17.553  -1.077 -0.59 -0.00    +0.000 N 
DOCKED: ATOM      9  H   UNL     1      20.851 -16.661  -1.466 -0.27 -0.00    +0.000 HD
DOCKED: BRANCH   8  10
DOCKED: ATOM     10  O   UNL     1      19.933 -18.326  -0.752 -1.86 -0.00    +0.000 OA
DOCKED: ATOM     11  H   UNL     1      19.114 -17.858  -0.975 -0.54 -0.00    +0.000 HD
DOCKED: ENDBRANCH   8  10
DOCKED: ENDBRANCH   5   7
DOCKED: ENDBRANCH   4   5
DOCKED: ENDBRANCH   3   4
DOCKED: ENDBRANCH   2   3
DOCKED: ENDBRANCH   1   2
DOCKED: BRANCH   1  12
DOCKED: ATOM     12  C   UNL     1      28.721 -14.963   0.052 -0.21 -0.00    +0.000 C 
DOCKED: BRANCH  12  13
DOCKED: ATOM     13  C   UNL     1      28.836 -13.997   1.196 -0.19 -0.00    +0.000 C 
DOCKED: ATOM     14  N   UNL     1      28.942 -14.485   2.543 -0.23 -0.00    +0.000 N 
DOCKED: ATOM     15  O   UNL     1      28.829 -12.758   0.962 -0.11 -0.00    +0.000 OA
DOCKED: ATOM     16  H   UNL     1      29.253 -15.409   2.675 -1.96 -0.00    +0.000 HD
DOCKED: BRANCH  14  17
DOCKED: ATOM     17  C   UNL     1      28.623 -13.707   3.709 -0.33 -0.00    +0.000 A 
DOCKED: ATOM     18  C   UNL     1      28.044 -12.439   3.558 -0.26 -0.00    +0.000 A 
DOCKED: ATOM     19  C   UNL     1      27.759 -11.661   4.681 -0.32 +0.00    +0.000 A 
DOCKED: ATOM     20  C   UNL     1      28.069 -12.151   5.950 -0.36 +0.00    +0.000 A 
DOCKED: ATOM     21  N   UNL     1      28.652 -13.371   6.084 -0.43 -0.00    +0.000 NA
DOCKED: ATOM     22  C   UNL     1      28.937 -14.151   5.007 -0.42 -0.00    +0.000 A 
DOCKED: ENDBRANCH  14  17
DOCKED: ENDBRANCH  12  13
DOCKED: ENDBRANCH   1  12
DOCKED: TORSDOF 9
DOCKED: TER
DOCKED: ENDMDL
________________________________________________________________________________


	BEGINNING GENETIC ALGORITHM DOCKING 77 of 100
Run: 77 Seed: 194979845 1922616882 [ Run 77 of 100 GA/GALS ]
Beginning LAMARCKIAN GENETIC ALGORITHM (LGA), with a maximum of 2500000 energy evaluations.

Final-Value: -13.420


	FINAL GENETIC ALGORITHM DOCKED STATE
	_______________________________________________


Detailed state:  trans 23.899 -16.400 -1.286 quatxyzw 0.555461 -0.672337 -0.443758 -0.206167 center -0.121 -0.193 0.463 ntor 9 5.8173 -146.4053 -140.0151 108.4771 51.7161 -29.1412 -68.2581 -119.7721 -7.5071
State:	 23.899 -16.400  -1.286   0.568 -0.687 -0.454 -156.204      5.82 -146.41 -140.02  108.48   51.72  -29.14  -68.26 -119.77   -7.51

DOCKED: MODEL       77
DOCKED: USER    Run = 77
DOCKED: USER    DPF = ligand_dock.biased.dpf
DOCKED: USER  
DOCKED: USER    Estimated Free Energy of Binding    =   -9.28 kcal/mol  [=(1)+(2)+(3)-(4)]
DOCKED: USER    Estimated Inhibition Constant, Ki   =  158.46 nM (nanomolar)  [Temperature = 298.15 K]
DOCKED: USER    
DOCKED: USER    (1) Final Intermolecular Energy     =  -11.96 kcal/mol
DOCKED: USER        vdW + Hbond + desolv Energy     =  -11.96 kcal/mol
DOCKED: USER        Electrostatic Energy            =   +0.00 kcal/mol
DOCKED: USER    (2) Final Total Internal Energy     =   -1.46 kcal/mol
DOCKED: USER    (3) Torsional Free Energy           =   +2.68 kcal/mol
DOCKED: USER    (4) Unbound System's Energy  [=(2)] =   -1.46 kcal/mol
DOCKED: USER    
DOCKED: USER    
DOCKED: USER    NEWDPF move ligand.pdbqt
DOCKED: USER    NEWDPF about -0.121000 -0.193000 0.463000
DOCKED: USER    NEWDPF tran0 23.899386 -16.399629 -1.286342
DOCKED: USER    NEWDPF quaternion0 0.555461 -0.672337 -0.443758 -0.206167
DOCKED: USER    NEWDPF axisangle0 0.567656 -0.687098 -0.453500 -156.204297
DOCKED: USER    NEWDPF quat0 0.567656 -0.687098 -0.453500 -156.204297
DOCKED: USER    NEWDPF dihe0 5.82 -146.41 -140.02 108.48 51.72 -29.14 -68.26 -119.77 -7.51 
DOCKED: USER  keepresnum = 1 
DOCKED: USER  
DOCKED: REMARK  Name = 
DOCKED: REMARK  9 active torsions:
DOCKED: REMARK  status: ('A' for Active; 'I' for Inactive)
DOCKED: REMARK    1  A    between atoms: C_2  and  C_5
DOCKED: REMARK    2  A    between atoms: N_3  and  O_4
DOCKED: REMARK    3  A    between atoms: C_5  and  C_6
DOCKED: REMARK    4  A    between atoms: C_6  and  C_7
DOCKED: REMARK    5  A    between atoms: C_7  and  C_8
DOCKED: REMARK    6  A    between atoms: C_8  and  C_9
DOCKED: REMARK    7  A    between atoms: C_9  and  C_10
DOCKED: REMARK    8  A    between atoms: C_10  and  C_11
DOCKED: REMARK    9  A    between atoms: N_12  and  C_13
DOCKED: REMARK                            x       y       z     vdW  Elec       q    Type
DOCKED: REMARK                         _______ _______ _______ _____ _____    ______ ____
DOCKED: USER                              x       y       z     vdW  Elec       q    Type
DOCKED: USER                           _______ _______ _______ _____ _____    ______ ____
DOCKED: ROOT
DOCKED: ATOM      1  C   UNL     1      26.458 -18.104  -0.357 -0.61 -0.00    +0.000 C 
DOCKED: ENDROOT
DOCKED: BRANCH   1   2
DOCKED: ATOM      2  C   UNL     1      24.992 -18.241   0.081 -0.64 -0.00    +0.000 C 
DOCKED: BRANCH   2   3
DOCKED: ATOM      3  C   UNL     1      24.044 -18.109  -1.120 -0.78 -0.00    +0.000 C 
DOCKED: BRANCH   3   4
DOCKED: ATOM      4  C   UNL     1      22.805 -19.015  -1.003 -0.81 -0.00    +0.000 C 
DOCKED: BRANCH   4   5
DOCKED: ATOM      5  C   UNL     1      21.468 -18.258  -0.946 -0.75 -0.00    +0.000 C 
DOCKED: BRANCH   5   7
DOCKED: ATOM      6  O   UNL     1      20.053 -19.735  -2.182 -1.89 -0.00    +0.000 OA
DOCKED: ATOM      7  C   UNL     1      20.291 -19.181  -1.075 -0.88 -0.00    +0.000 C 
DOCKED: ATOM      8  N   UNL     1      19.426 -19.414   0.041 -0.76 -0.00    +0.000 N 
DOCKED: ATOM      9  H   UNL     1      19.619 -18.985   0.905 -0.22 -0.00    +0.000 HD
DOCKED: BRANCH   8  10
DOCKED: ATOM     10  O   UNL     1      18.346 -20.222  -0.082 -0.83 -0.00    +0.000 OA
DOCKED: ATOM     11  H   UNL     1      18.349 -20.635  -0.959 -0.35 -0.00    +0.000 HD
DOCKED: ENDBRANCH   8  10
DOCKED: ENDBRANCH   5   7
DOCKED: ENDBRANCH   4   5
DOCKED: ENDBRANCH   3   4
DOCKED: ENDBRANCH   2   3
DOCKED: ENDBRANCH   1   2
DOCKED: BRANCH   1  12
DOCKED: ATOM     12  C   UNL     1      27.095 -16.803   0.150 -0.37 -0.00    +0.000 C 
DOCKED: BRANCH  12  13
DOCKED: ATOM     13  C   UNL     1      26.665 -15.625  -0.676 -0.39 -0.00    +0.000 C 
DOCKED: ATOM     14  N   UNL     1      26.259 -15.813  -2.041 -0.40 -0.00    +0.000 N 
DOCKED: ATOM     15  O   UNL     1      26.672 -14.474  -0.162 -0.35 -0.00    +0.000 OA
DOCKED: ATOM     16  H   UNL     1      25.967 -16.711  -2.316 -0.02 -0.00    +0.000 HD
DOCKED: BRANCH  14  17
DOCKED: ATOM     17  C   UNL     1      26.252 -14.769  -3.031 -0.39 -0.00    +0.000 A 
DOCKED: ATOM     18  C   UNL     1      27.465 -14.205  -3.450 -0.23 -0.00    +0.000 A 
DOCKED: ATOM     19  C   UNL     1      27.470 -13.169  -4.385 -0.21 -0.00    +0.000 A 
DOCKED: ATOM     20  C   UNL     1      26.258 -12.693  -4.885 -0.22 -0.00    +0.000 A 
DOCKED: ATOM     21  N   UNL     1      25.087 -13.230  -4.454 -0.50 -0.00    +0.000 NA
DOCKED: ATOM     22  C   UNL     1      25.054 -14.242  -3.546 -0.35 -0.00    +0.000 A 
DOCKED: ENDBRANCH  14  17
DOCKED: ENDBRANCH  12  13
DOCKED: ENDBRANCH   1  12
DOCKED: TORSDOF 9
DOCKED: TER
DOCKED: ENDMDL
________________________________________________________________________________


	BEGINNING GENETIC ALGORITHM DOCKING 78 of 100
Run: 78 Seed: 1447361845 44852078 [ Run 78 of 100 GA/GALS ]
Beginning LAMARCKIAN GENETIC ALGORITHM (LGA), with a maximum of 2500000 energy evaluations.

Final-Value: -13.849


	FINAL GENETIC ALGORITHM DOCKED STATE
	_______________________________________________


Detailed state:  trans 24.549 -19.135 -1.765 quatxyzw -0.248765 0.739664 -0.311642 0.542119 center -0.121 -0.193 0.463 ntor 9 0.7172 118.7815 101.4580 54.4583 3.0937 -45.2648 -120.6997 108.1559 117.6190
State:	 24.549 -19.135  -1.765  -0.296  0.880 -0.371 114.344      0.72  118.78  101.46   54.46    3.09  -45.26 -120.70  108.16  117.62

DOCKED: MODEL       78
DOCKED: USER    Run = 78
DOCKED: USER    DPF = ligand_dock.biased.dpf
DOCKED: USER  
DOCKED: USER    Estimated Free Energy of Binding    =   -9.84 kcal/mol  [=(1)+(2)+(3)-(4)]
DOCKED: USER    Estimated Inhibition Constant, Ki   =   61.70 nM (nanomolar)  [Temperature = 298.15 K]
DOCKED: USER    
DOCKED: USER    (1) Final Intermolecular Energy     =  -12.52 kcal/mol
DOCKED: USER        vdW + Hbond + desolv Energy     =  -12.52 kcal/mol
DOCKED: USER        Electrostatic Energy            =   +0.00 kcal/mol
DOCKED: USER    (2) Final Total Internal Energy     =   -1.33 kcal/mol
DOCKED: USER    (3) Torsional Free Energy           =   +2.68 kcal/mol
DOCKED: USER    (4) Unbound System's Energy  [=(2)] =   -1.33 kcal/mol
DOCKED: USER    
DOCKED: USER    
DOCKED: USER    NEWDPF move ligand.pdbqt
DOCKED: USER    NEWDPF about -0.121000 -0.193000 0.463000
DOCKED: USER    NEWDPF tran0 24.549193 -19.134970 -1.764936
DOCKED: USER    NEWDPF quaternion0 -0.248765 0.739664 -0.311642 0.542119
DOCKED: USER    NEWDPF axisangle0 -0.296043 0.880236 -0.370869 114.344016
DOCKED: USER    NEWDPF quat0 -0.296043 0.880236 -0.370869 114.344016
DOCKED: USER    NEWDPF dihe0 0.72 118.78 101.46 54.46 3.09 -45.26 -120.70 108.16 117.62 
DOCKED: USER  keepresnum = 1 
DOCKED: USER  
DOCKED: REMARK  Name = 
DOCKED: REMARK  9 active torsions:
DOCKED: REMARK  status: ('A' for Active; 'I' for Inactive)
DOCKED: REMARK    1  A    between atoms: C_2  and  C_5
DOCKED: REMARK    2  A    between atoms: N_3  and  O_4
DOCKED: REMARK    3  A    between atoms: C_5  and  C_6
DOCKED: REMARK    4  A    between atoms: C_6  and  C_7
DOCKED: REMARK    5  A    between atoms: C_7  and  C_8
DOCKED: REMARK    6  A    between atoms: C_8  and  C_9
DOCKED: REMARK    7  A    between atoms: C_9  and  C_10
DOCKED: REMARK    8  A    between atoms: C_10  and  C_11
DOCKED: REMARK    9  A    between atoms: N_12  and  C_13
DOCKED: REMARK                            x       y       z     vdW  Elec       q    Type
DOCKED: REMARK                         _______ _______ _______ _____ _____    ______ ____
DOCKED: USER                              x       y       z     vdW  Elec       q    Type
DOCKED: USER                           _______ _______ _______ _____ _____    ______ ____
DOCKED: ROOT
DOCKED: ATOM      1  C   UNL     1      26.827 -17.350  -0.372 -0.54 -0.00    +0.000 C 
DOCKED: ENDROOT
DOCKED: BRANCH   1   2
DOCKED: ATOM      2  C   UNL     1      25.301 -17.174  -0.336 -0.54 -0.00    +0.000 C 
DOCKED: BRANCH   2   3
DOCKED: ATOM      3  C   UNL     1      24.616 -18.103  -1.347 -0.68 -0.00    +0.000 C 
DOCKED: BRANCH   3   4
DOCKED: ATOM      4  C   UNL     1      23.485 -18.938  -0.718 -0.80 -0.00    +0.000 C 
DOCKED: BRANCH   4   5
DOCKED: ATOM      5  C   UNL     1      22.249 -18.123  -0.303 -0.83 -0.00    +0.000 C 
DOCKED: BRANCH   5   7
DOCKED: ATOM      6  O   UNL     1      20.014 -17.762  -1.069 -1.85 -0.00    +0.000 OA
DOCKED: ATOM      7  C   UNL     1      21.028 -18.511  -1.084 -0.76 -0.00    +0.000 C 
DOCKED: ATOM      8  N   UNL     1      20.999 -19.735  -1.825 -0.68 -0.00    +0.000 N 
DOCKED: ATOM      9  H   UNL     1      21.795 -20.314  -1.840 -0.45 -0.00    +0.000 HD
DOCKED: BRANCH   8  10
DOCKED: ATOM     10  O   UNL     1      19.887 -20.102  -2.505 -1.69 -0.00    +0.000 OA
DOCKED: ATOM     11  H   UNL     1      19.204 -19.423  -2.399 -0.47 -0.00    +0.000 HD
DOCKED: ENDBRANCH   8  10
DOCKED: ENDBRANCH   5   7
DOCKED: ENDBRANCH   4   5
DOCKED: ENDBRANCH   3   4
DOCKED: ENDBRANCH   2   3
DOCKED: ENDBRANCH   1   2
DOCKED: BRANCH   1  12
DOCKED: ATOM     12  C   UNL     1      27.409 -17.072  -1.765 -0.34 -0.00    +0.000 C 
DOCKED: BRANCH  12  13
DOCKED: ATOM     13  C   UNL     1      26.870 -15.793  -2.339 -0.39 -0.00    +0.000 C 
DOCKED: ATOM     14  N   UNL     1      26.892 -15.576  -3.759 -0.41 -0.00    +0.000 N 
DOCKED: ATOM     15  O   UNL     1      26.408 -14.914  -1.563 -0.35 -0.00    +0.000 OA
DOCKED: ATOM     16  H   UNL     1      26.958 -16.364  -4.345 -0.01 -0.00    +0.000 HD
DOCKED: BRANCH  14  17
DOCKED: ATOM     17  C   UNL     1      26.824 -14.279  -4.376 -0.38 -0.00    +0.000 A 
DOCKED: ATOM     18  C   UNL     1      25.792 -13.398  -4.024 -0.38 -0.00    +0.000 A 
DOCKED: ATOM     19  C   UNL     1      25.696 -12.149  -4.640 -0.29 -0.00    +0.000 A 
DOCKED: ATOM     20  C   UNL     1      26.626 -11.795  -5.617 -0.19 -0.00    +0.000 A 
DOCKED: ATOM     21  N   UNL     1      27.608 -12.667  -5.969 -0.22 -0.00    +0.000 NA
DOCKED: ATOM     22  C   UNL     1      27.726 -13.888  -5.382 -0.29 -0.00    +0.000 A 
DOCKED: ENDBRANCH  14  17
DOCKED: ENDBRANCH  12  13
DOCKED: ENDBRANCH   1  12
DOCKED: TORSDOF 9
DOCKED: TER
DOCKED: ENDMDL
________________________________________________________________________________


	BEGINNING GENETIC ALGORITHM DOCKING 79 of 100
Run: 79 Seed: 1789883375 854885444 [ Run 79 of 100 GA/GALS ]
Beginning LAMARCKIAN GENETIC ALGORITHM (LGA), with a maximum of 2500000 energy evaluations.

Final-Value: -14.411


	FINAL GENETIC ALGORITHM DOCKED STATE
	_______________________________________________


Detailed state:  trans 24.724 -16.233 1.388 quatxyzw -0.413339 0.236274 0.878238 0.044983 center -0.121 -0.193 0.463 ntor 9 9.9679 -33.3666 180.0000 165.7256 174.0411 7.7983 -30.3711 37.1689 -43.9644
State:	 24.724 -16.233   1.388  -0.414  0.237  0.879 174.844      9.97  -33.37  180.00  165.73  174.04    7.80  -30.37   37.17  -43.96

DOCKED: MODEL       79
DOCKED: USER    Run = 79
DOCKED: USER    DPF = ligand_dock.biased.dpf
DOCKED: USER  
DOCKED: USER    Estimated Free Energy of Binding    =  -10.54 kcal/mol  [=(1)+(2)+(3)-(4)]
DOCKED: USER    Estimated Inhibition Constant, Ki   =   18.68 nM (nanomolar)  [Temperature = 298.15 K]
DOCKED: USER    
DOCKED: USER    (1) Final Intermolecular Energy     =  -13.23 kcal/mol
DOCKED: USER        vdW + Hbond + desolv Energy     =  -13.23 kcal/mol
DOCKED: USER        Electrostatic Energy            =   +0.00 kcal/mol
DOCKED: USER    (2) Final Total Internal Energy     =   -1.18 kcal/mol
DOCKED: USER    (3) Torsional Free Energy           =   +2.68 kcal/mol
DOCKED: USER    (4) Unbound System's Energy  [=(2)] =   -1.18 kcal/mol
DOCKED: USER    
DOCKED: USER    
DOCKED: USER    NEWDPF move ligand.pdbqt
DOCKED: USER    NEWDPF about -0.121000 -0.193000 0.463000
DOCKED: USER    NEWDPF tran0 24.724196 -16.233188 1.388031
DOCKED: USER    NEWDPF quaternion0 -0.413339 0.236274 0.878238 0.044983
DOCKED: USER    NEWDPF axisangle0 -0.413757 0.236513 0.879128 174.843621
DOCKED: USER    NEWDPF quat0 -0.413757 0.236513 0.879128 174.843621
DOCKED: USER    NEWDPF dihe0 9.97 -33.37 180.00 165.73 174.04 7.80 -30.37 37.17 -43.96 
DOCKED: USER  keepresnum = 1 
DOCKED: USER  
DOCKED: REMARK  Name = 
DOCKED: REMARK  9 active torsions:
DOCKED: REMARK  status: ('A' for Active; 'I' for Inactive)
DOCKED: REMARK    1  A    between atoms: C_2  and  C_5
DOCKED: REMARK    2  A    between atoms: N_3  and  O_4
DOCKED: REMARK    3  A    between atoms: C_5  and  C_6
DOCKED: REMARK    4  A    between atoms: C_6  and  C_7
DOCKED: REMARK    5  A    between atoms: C_7  and  C_8
DOCKED: REMARK    6  A    between atoms: C_8  and  C_9
DOCKED: REMARK    7  A    between atoms: C_9  and  C_10
DOCKED: REMARK    8  A    between atoms: C_10  and  C_11
DOCKED: REMARK    9  A    between atoms: N_12  and  C_13
DOCKED: REMARK                            x       y       z     vdW  Elec       q    Type
DOCKED: REMARK                         _______ _______ _______ _____ _____    ______ ____
DOCKED: USER                              x       y       z     vdW  Elec       q    Type
DOCKED: USER                           _______ _______ _______ _____ _____    ______ ____
DOCKED: ROOT
DOCKED: ATOM      1  C   UNL     1      26.697 -16.987  -1.032 -0.51 -0.00    +0.000 C 
DOCKED: ENDROOT
DOCKED: BRANCH   1   2
DOCKED: ATOM      2  C   UNL     1      25.615 -17.847  -0.360 -0.68 -0.00    +0.000 C 
DOCKED: BRANCH   2   3
DOCKED: ATOM      3  C   UNL     1      24.219 -17.490  -0.891 -0.73 -0.00    +0.000 C 
DOCKED: BRANCH   3   4
DOCKED: ATOM      4  C   UNL     1      23.099 -18.299  -0.212 -0.80 -0.00    +0.000 C 
DOCKED: BRANCH   4   5
DOCKED: ATOM      5  C   UNL     1      22.265 -19.161  -1.174 -0.75 -0.00    +0.000 C 
DOCKED: BRANCH   5   7
DOCKED: ATOM      6  O   UNL     1      20.312 -17.856  -0.734 -2.22 -0.00    +0.000 OA
DOCKED: ATOM      7  C   UNL     1      20.791 -19.003  -0.940 -0.88 -0.00    +0.000 C 
DOCKED: ATOM      8  N   UNL     1      19.932 -20.148  -0.924 -0.69 -0.00    +0.000 N 
DOCKED: ATOM      9  H   UNL     1      20.309 -21.041  -1.091 -0.45 -0.00    +0.000 HD
DOCKED: BRANCH   8  10
DOCKED: ATOM     10  O   UNL     1      18.607 -20.011  -0.681 -0.85 -0.00    +0.000 OA
DOCKED: ATOM     11  H   UNL     1      18.371 -19.071  -0.695 -0.58 -0.00    +0.000 HD
DOCKED: ENDBRANCH   8  10
DOCKED: ENDBRANCH   5   7
DOCKED: ENDBRANCH   4   5
DOCKED: ENDBRANCH   3   4
DOCKED: ENDBRANCH   2   3
DOCKED: ENDBRANCH   1   2
DOCKED: BRANCH   1  12
DOCKED: ATOM     12  C   UNL     1      27.885 -16.717  -0.099 -0.29 -0.00    +0.000 C 
DOCKED: BRANCH  12  13
DOCKED: ATOM     13  C   UNL     1      27.988 -15.260   0.249 -0.28 -0.00    +0.000 C 
DOCKED: ATOM     14  N   UNL     1      28.140 -14.857   1.619 -0.23 -0.00    +0.000 N 
DOCKED: ATOM     15  O   UNL     1      27.931 -14.399  -0.670 -0.19 -0.00    +0.000 OA
DOCKED: ATOM     16  H   UNL     1      28.487 -15.519   2.259 -1.50 -0.00    +0.000 HD
DOCKED: BRANCH  14  17
DOCKED: ATOM     17  C   UNL     1      27.817 -13.546   2.114 -0.26 -0.00    +0.000 A 
DOCKED: ATOM     18  C   UNL     1      26.851 -12.775   1.452 -0.29 -0.00    +0.000 A 
DOCKED: ATOM     19  C   UNL     1      26.551 -11.489   1.902 -0.32 +0.00    +0.000 A 
DOCKED: ATOM     20  C   UNL     1      27.232 -10.975   3.006 -0.26 +0.00    +0.000 A 
DOCKED: ATOM     21  N   UNL     1      28.184 -11.720   3.625 -0.22 +0.00    +0.000 NA
DOCKED: ATOM     22  C   UNL     1      28.493 -12.978   3.209 -0.23 -0.00    +0.000 A 
DOCKED: ENDBRANCH  14  17
DOCKED: ENDBRANCH  12  13
DOCKED: ENDBRANCH   1  12
DOCKED: TORSDOF 9
DOCKED: TER
DOCKED: ENDMDL
________________________________________________________________________________


	BEGINNING GENETIC ALGORITHM DOCKING 80 of 100
Run: 80 Seed: 117689151 582340914 [ Run 80 of 100 GA/GALS ]
Beginning LAMARCKIAN GENETIC ALGORITHM (LGA), with a maximum of 2500000 energy evaluations.

Final-Value: -14.488


	FINAL GENETIC ALGORITHM DOCKED STATE
	_______________________________________________


Detailed state:  trans 25.279 -15.518 0.303 quatxyzw 0.061066 -0.108524 -0.769807 -0.626011 center -0.121 -0.193 0.463 ntor 9 0.1169 -111.3764 -104.7930 113.3670 61.7146 -164.7531 -53.1069 116.2804 174.0867
State:	 25.279 -15.518   0.303   0.078 -0.139 -0.987 -102.487      0.12 -111.38 -104.79  113.37   61.71 -164.75  -53.11  116.28  174.09

DOCKED: MODEL       80
DOCKED: USER    Run = 80
DOCKED: USER    DPF = ligand_dock.biased.dpf
DOCKED: USER  
DOCKED: USER    Estimated Free Energy of Binding    =  -10.52 kcal/mol  [=(1)+(2)+(3)-(4)]
DOCKED: USER    Estimated Inhibition Constant, Ki   =   19.29 nM (nanomolar)  [Temperature = 298.15 K]
DOCKED: USER    
DOCKED: USER    (1) Final Intermolecular Energy     =  -13.21 kcal/mol
DOCKED: USER        vdW + Hbond + desolv Energy     =  -13.21 kcal/mol
DOCKED: USER        Electrostatic Energy            =   +0.00 kcal/mol
DOCKED: USER    (2) Final Total Internal Energy     =   -1.28 kcal/mol
DOCKED: USER    (3) Torsional Free Energy           =   +2.68 kcal/mol
DOCKED: USER    (4) Unbound System's Energy  [=(2)] =   -1.28 kcal/mol
DOCKED: USER    
DOCKED: USER    
DOCKED: USER    NEWDPF move ligand.pdbqt
DOCKED: USER    NEWDPF about -0.121000 -0.193000 0.463000
DOCKED: USER    NEWDPF tran0 25.278792 -15.517619 0.302853
DOCKED: USER    NEWDPF quaternion0 0.061066 -0.108524 -0.769807 -0.626011
DOCKED: USER    NEWDPF axisangle0 0.078309 -0.139167 -0.987168 -102.487100
DOCKED: USER    NEWDPF quat0 0.078309 -0.139167 -0.987168 -102.487100
DOCKED: USER    NEWDPF dihe0 0.12 -111.38 -104.79 113.37 61.71 -164.75 -53.11 116.28 174.09 
DOCKED: USER  keepresnum = 1 
DOCKED: USER  
DOCKED: REMARK  Name = 
DOCKED: REMARK  9 active torsions:
DOCKED: REMARK  status: ('A' for Active; 'I' for Inactive)
DOCKED: REMARK    1  A    between atoms: C_2  and  C_5
DOCKED: REMARK    2  A    between atoms: N_3  and  O_4
DOCKED: REMARK    3  A    between atoms: C_5  and  C_6
DOCKED: REMARK    4  A    between atoms: C_6  and  C_7
DOCKED: REMARK    5  A    between atoms: C_7  and  C_8
DOCKED: REMARK    6  A    between atoms: C_8  and  C_9
DOCKED: REMARK    7  A    between atoms: C_9  and  C_10
DOCKED: REMARK    8  A    between atoms: C_10  and  C_11
DOCKED: REMARK    9  A    between atoms: N_12  and  C_13
DOCKED: REMARK                            x       y       z     vdW  Elec       q    Type
DOCKED: REMARK                         _______ _______ _______ _____ _____    ______ ____
DOCKED: USER                              x       y       z     vdW  Elec       q    Type
DOCKED: USER                           _______ _______ _______ _____ _____    ______ ____
DOCKED: ROOT
DOCKED: ATOM      1  C   UNL     1      25.233 -16.278  -2.818 -0.45 -0.00    +0.000 C 
DOCKED: ENDROOT
DOCKED: BRANCH   1   2
DOCKED: ATOM      2  C   UNL     1      26.070 -16.889  -1.683 -0.54 -0.00    +0.000 C 
DOCKED: BRANCH   2   3
DOCKED: ATOM      3  C   UNL     1      25.170 -17.427  -0.562 -0.65 -0.00    +0.000 C 
DOCKED: BRANCH   3   4
DOCKED: ATOM      4  C   UNL     1      23.679 -17.429  -0.945 -0.74 -0.00    +0.000 C 
DOCKED: BRANCH   4   5
DOCKED: ATOM      5  C   UNL     1      22.973 -18.780  -0.742 -0.83 -0.00    +0.000 C 
DOCKED: BRANCH   5   7
DOCKED: ATOM      6  O   UNL     1      20.871 -17.643  -0.710 -2.14 -0.00    +0.000 OA
DOCKED: ATOM      7  C   UNL     1      21.499 -18.693  -1.013 -0.82 -0.00    +0.000 C 
DOCKED: ATOM      8  N   UNL     1      20.801 -19.801  -1.589 -0.71 -0.00    +0.000 N 
DOCKED: ATOM      9  H   UNL     1      21.296 -20.617  -1.830 -0.31 -0.00    +0.000 HD
DOCKED: BRANCH   8  10
DOCKED: ATOM     10  O   UNL     1      19.465 -19.737  -1.805 -1.58 -0.00    +0.000 OA
DOCKED: ATOM     11  H   UNL     1      19.132 -18.873  -1.518 -0.56 -0.00    +0.000 HD
DOCKED: ENDBRANCH   8  10
DOCKED: ENDBRANCH   5   7
DOCKED: ENDBRANCH   4   5
DOCKED: ENDBRANCH   3   4
DOCKED: ENDBRANCH   2   3
DOCKED: ENDBRANCH   1   2
DOCKED: BRANCH   1  12
DOCKED: ATOM     12  C   UNL     1      25.654 -14.837  -3.137 -0.52 -0.00    +0.000 C 
DOCKED: BRANCH  12  13
DOCKED: ATOM     13  C   UNL     1      26.462 -14.771  -4.401 -0.52 -0.00    +0.000 C 
DOCKED: ATOM     14  N   UNL     1      27.463 -13.753  -4.563 -0.25 -0.00    +0.000 N 
DOCKED: ATOM     15  O   UNL     1      26.247 -15.609  -5.317 -1.20 +0.00    +0.000 OA
DOCKED: ATOM     16  H   UNL     1      27.822 -13.326  -3.752 +0.00 -0.00    +0.000 HD
DOCKED: BRANCH  14  17
DOCKED: ATOM     17  C   UNL     1      27.972 -13.318  -5.836 -0.23 -0.00    +0.000 A 
DOCKED: ATOM     18  C   UNL     1      27.508 -12.119  -6.394 -0.16 -0.00    +0.000 A 
DOCKED: ATOM     19  C   UNL     1      27.970 -11.703  -7.644 -0.18 -0.00    +0.000 A 
DOCKED: ATOM     20  C   UNL     1      28.884 -12.499  -8.335 -0.22 -0.00    +0.000 A 
DOCKED: ATOM     21  N   UNL     1      29.309 -13.671  -7.795 -0.27 -0.00    +0.000 NA
DOCKED: ATOM     22  C   UNL     1      28.877 -14.098  -6.578 -0.31 -0.00    +0.000 A 
DOCKED: ENDBRANCH  14  17
DOCKED: ENDBRANCH  12  13
DOCKED: ENDBRANCH   1  12
DOCKED: TORSDOF 9
DOCKED: TER
DOCKED: ENDMDL
________________________________________________________________________________


	BEGINNING GENETIC ALGORITHM DOCKING 81 of 100
Run: 81 Seed: 1711500640 496406521 [ Run 81 of 100 GA/GALS ]
Beginning LAMARCKIAN GENETIC ALGORITHM (LGA), with a maximum of 2500000 energy evaluations.

Final-Value: -13.688


	FINAL GENETIC ALGORITHM DOCKED STATE
	_______________________________________________


Detailed state:  trans 27.487 -18.897 -2.765 quatxyzw -0.726257 0.267936 -0.567313 0.280923 center -0.121 -0.193 0.463 ntor 9 1.4948 -88.5538 98.2383 73.9475 56.5209 -93.8638 84.1846 36.9236 -75.4192
State:	 27.487 -18.897  -2.765  -0.757  0.279 -0.591 147.369      1.49  -88.55   98.24   73.95   56.52  -93.86   84.18   36.92  -75.42

DOCKED: MODEL       81
DOCKED: USER    Run = 81
DOCKED: USER    DPF = ligand_dock.biased.dpf
DOCKED: USER  
DOCKED: USER    Estimated Free Energy of Binding    =   -9.77 kcal/mol  [=(1)+(2)+(3)-(4)]
DOCKED: USER    Estimated Inhibition Constant, Ki   =   68.40 nM (nanomolar)  [Temperature = 298.15 K]
DOCKED: USER    
DOCKED: USER    (1) Final Intermolecular Energy     =  -12.46 kcal/mol
DOCKED: USER        vdW + Hbond + desolv Energy     =  -12.46 kcal/mol
DOCKED: USER        Electrostatic Energy            =   +0.00 kcal/mol
DOCKED: USER    (2) Final Total Internal Energy     =   -1.23 kcal/mol
DOCKED: USER    (3) Torsional Free Energy           =   +2.68 kcal/mol
DOCKED: USER    (4) Unbound System's Energy  [=(2)] =   -1.23 kcal/mol
DOCKED: USER    
DOCKED: USER    
DOCKED: USER    NEWDPF move ligand.pdbqt
DOCKED: USER    NEWDPF about -0.121000 -0.193000 0.463000
DOCKED: USER    NEWDPF tran0 27.487039 -18.897316 -2.765189
DOCKED: USER    NEWDPF quaternion0 -0.726257 0.267936 -0.567313 0.280923
DOCKED: USER    NEWDPF axisangle0 -0.756730 0.279179 -0.591117 147.369453
DOCKED: USER    NEWDPF quat0 -0.756730 0.279179 -0.591117 147.369453
DOCKED: USER    NEWDPF dihe0 1.49 -88.55 98.24 73.95 56.52 -93.86 84.18 36.92 -75.42 
DOCKED: USER  keepresnum = 1 
DOCKED: USER  
DOCKED: REMARK  Name = 
DOCKED: REMARK  9 active torsions:
DOCKED: REMARK  status: ('A' for Active; 'I' for Inactive)
DOCKED: REMARK    1  A    between atoms: C_2  and  C_5
DOCKED: REMARK    2  A    between atoms: N_3  and  O_4
DOCKED: REMARK    3  A    between atoms: C_5  and  C_6
DOCKED: REMARK    4  A    between atoms: C_6  and  C_7
DOCKED: REMARK    5  A    between atoms: C_7  and  C_8
DOCKED: REMARK    6  A    between atoms: C_8  and  C_9
DOCKED: REMARK    7  A    between atoms: C_9  and  C_10
DOCKED: REMARK    8  A    between atoms: C_10  and  C_11
DOCKED: REMARK    9  A    between atoms: N_12  and  C_13
DOCKED: REMARK                            x       y       z     vdW  Elec       q    Type
DOCKED: REMARK                         _______ _______ _______ _____ _____    ______ ____
DOCKED: USER                              x       y       z     vdW  Elec       q    Type
DOCKED: USER                           _______ _______ _______ _____ _____    ______ ____
DOCKED: ROOT
DOCKED: ATOM      1  C   UNL     1      26.009 -16.288  -1.616 -0.52 -0.00    +0.000 C 
DOCKED: ENDROOT
DOCKED: BRANCH   1   2
DOCKED: ATOM      2  C   UNL     1      25.839 -17.758  -1.203 -0.56 -0.00    +0.000 C 
DOCKED: BRANCH   2   3
DOCKED: ATOM      3  C   UNL     1      24.572 -17.950  -0.358 -0.73 -0.00    +0.000 C 
DOCKED: BRANCH   3   4
DOCKED: ATOM      4  C   UNL     1      23.294 -18.028  -1.211 -0.77 -0.00    +0.000 C 
DOCKED: BRANCH   4   5
DOCKED: ATOM      5  C   UNL     1      22.479 -19.318  -1.019 -0.73 -0.00    +0.000 C 
DOCKED: BRANCH   5   7
DOCKED: ATOM      6  O   UNL     1      20.609 -17.862  -0.709 -2.34 -0.00    +0.000 OA
DOCKED: ATOM      7  C   UNL     1      21.008 -19.043  -0.891 -0.88 -0.00    +0.000 C 
DOCKED: ATOM      8  N   UNL     1      20.063 -20.115  -0.949 -0.74 -0.00    +0.000 N 
DOCKED: ATOM      9  H   UNL     1      20.378 -21.035  -1.097 -0.41 -0.00    +0.000 HD
DOCKED: BRANCH   8  10
DOCKED: ATOM     10  O   UNL     1      18.738 -19.874  -0.802 -0.85 -0.00    +0.000 OA
DOCKED: ATOM     11  H   UNL     1      18.593 -18.922  -0.688 -0.48 -0.00    +0.000 HD
DOCKED: ENDBRANCH   8  10
DOCKED: ENDBRANCH   5   7
DOCKED: ENDBRANCH   4   5
DOCKED: ENDBRANCH   3   4
DOCKED: ENDBRANCH   2   3
DOCKED: ENDBRANCH   1   2
DOCKED: BRANCH   1  12
DOCKED: ATOM     12  C   UNL     1      25.470 -16.016  -3.027 -0.53 -0.00    +0.000 C 
DOCKED: BRANCH  12  13
DOCKED: ATOM     13  C   UNL     1      26.291 -14.978  -3.736 -0.52 -0.00    +0.000 C 
DOCKED: ATOM     14  N   UNL     1      26.763 -15.223  -5.071 -0.52 -0.00    +0.000 N 
DOCKED: ATOM     15  O   UNL     1      26.566 -13.898  -3.147 -0.31 -0.00    +0.000 OA
DOCKED: ATOM     16  H   UNL     1      26.295 -15.900  -5.609 -0.08 +0.00    +0.000 HD
DOCKED: BRANCH  14  17
DOCKED: ATOM     17  C   UNL     1      27.878 -14.539  -5.669 -0.34 -0.00    +0.000 A 
DOCKED: ATOM     18  C   UNL     1      27.882 -13.138  -5.725 -0.22 -0.00    +0.000 A 
DOCKED: ATOM     19  C   UNL     1      28.942 -12.464  -6.331 -0.15 -0.00    +0.000 A 
DOCKED: ATOM     20  C   UNL     1      29.988 -13.197  -6.892 -0.17 -0.00    +0.000 A 
DOCKED: ATOM     21  N   UNL     1      29.963 -14.555  -6.854 -0.26 -0.00    +0.000 NA
DOCKED: ATOM     22  C   UNL     1      28.943 -15.237  -6.266 -0.34 -0.00    +0.000 A 
DOCKED: ENDBRANCH  14  17
DOCKED: ENDBRANCH  12  13
DOCKED: ENDBRANCH   1  12
DOCKED: TORSDOF 9
DOCKED: TER
DOCKED: ENDMDL
________________________________________________________________________________


	BEGINNING GENETIC ALGORITHM DOCKING 82 of 100
Run: 82 Seed: 453761033 1180655050 [ Run 82 of 100 GA/GALS ]
Beginning LAMARCKIAN GENETIC ALGORITHM (LGA), with a maximum of 2500000 energy evaluations.

Final-Value: -13.725


	FINAL GENETIC ALGORITHM DOCKED STATE
	_______________________________________________


Detailed state:  trans 23.105 -15.372 -3.780 quatxyzw -0.706761 0.556542 0.341056 0.272819 center -0.121 -0.193 0.463 ntor 9 -13.5652 167.6370 68.2457 51.1355 -175.3566 37.4442 85.7597 157.5806 176.9342
State:	 23.105 -15.372  -3.780  -0.735  0.578  0.355 148.336    -13.57  167.64   68.25   51.14 -175.36   37.44   85.76  157.58  176.93

DOCKED: MODEL       82
DOCKED: USER    Run = 82
DOCKED: USER    DPF = ligand_dock.biased.dpf
DOCKED: USER  
DOCKED: USER    Estimated Free Energy of Binding    =   -9.64 kcal/mol  [=(1)+(2)+(3)-(4)]
DOCKED: USER    Estimated Inhibition Constant, Ki   =   86.13 nM (nanomolar)  [Temperature = 298.15 K]
DOCKED: USER    
DOCKED: USER    (1) Final Intermolecular Energy     =  -12.32 kcal/mol
DOCKED: USER        vdW + Hbond + desolv Energy     =  -12.32 kcal/mol
DOCKED: USER        Electrostatic Energy            =   +0.00 kcal/mol
DOCKED: USER    (2) Final Total Internal Energy     =   -1.40 kcal/mol
DOCKED: USER    (3) Torsional Free Energy           =   +2.68 kcal/mol
DOCKED: USER    (4) Unbound System's Energy  [=(2)] =   -1.40 kcal/mol
DOCKED: USER    
DOCKED: USER    
DOCKED: USER    NEWDPF move ligand.pdbqt
DOCKED: USER    NEWDPF about -0.121000 -0.193000 0.463000
DOCKED: USER    NEWDPF tran0 23.105113 -15.372359 -3.779895
DOCKED: USER    NEWDPF quaternion0 -0.706761 0.556542 0.341056 0.272819
DOCKED: USER    NEWDPF axisangle0 -0.734629 0.578487 0.354504 148.335860
DOCKED: USER    NEWDPF quat0 -0.734629 0.578487 0.354504 148.335860
DOCKED: USER    NEWDPF dihe0 -13.57 167.64 68.25 51.14 -175.36 37.44 85.76 157.58 176.93 
DOCKED: USER  keepresnum = 1 
DOCKED: USER  
DOCKED: REMARK  Name = 
DOCKED: REMARK  9 active torsions:
DOCKED: REMARK  status: ('A' for Active; 'I' for Inactive)
DOCKED: REMARK    1  A    between atoms: C_2  and  C_5
DOCKED: REMARK    2  A    between atoms: N_3  and  O_4
DOCKED: REMARK    3  A    between atoms: C_5  and  C_6
DOCKED: REMARK    4  A    between atoms: C_6  and  C_7
DOCKED: REMARK    5  A    between atoms: C_7  and  C_8
DOCKED: REMARK    6  A    between atoms: C_8  and  C_9
DOCKED: REMARK    7  A    between atoms: C_9  and  C_10
DOCKED: REMARK    8  A    between atoms: C_10  and  C_11
DOCKED: REMARK    9  A    between atoms: N_12  and  C_13
DOCKED: REMARK                            x       y       z     vdW  Elec       q    Type
DOCKED: REMARK                         _______ _______ _______ _____ _____    ______ ____
DOCKED: USER                              x       y       z     vdW  Elec       q    Type
DOCKED: USER                           _______ _______ _______ _____ _____    ______ ____
DOCKED: ROOT
DOCKED: ATOM      1  C   UNL     1      26.013 -15.807  -2.487 -0.50 -0.00    +0.000 C 
DOCKED: ENDROOT
DOCKED: BRANCH   1   2
DOCKED: ATOM      2  C   UNL     1      24.700 -16.545  -2.187 -0.49 -0.00    +0.000 C 
DOCKED: BRANCH   2   3
DOCKED: ATOM      3  C   UNL     1      24.793 -17.319  -0.865 -0.69 -0.00    +0.000 C 
DOCKED: BRANCH   3   4
DOCKED: ATOM      4  C   UNL     1      23.941 -18.601  -0.864 -0.80 -0.00    +0.000 C 
DOCKED: BRANCH   4   5
DOCKED: ATOM      5  C   UNL     1      22.700 -18.539   0.042 -0.76 -0.00    +0.000 C 
DOCKED: BRANCH   5   7
DOCKED: ATOM      6  O   UNL     1      20.653 -17.559  -0.707 -2.14 +0.00    +0.000 OA
DOCKED: ATOM      7  C   UNL     1      21.423 -18.556  -0.747 -0.86 -0.00    +0.000 C 
DOCKED: ATOM      8  N   UNL     1      21.064 -19.704  -1.521 -0.72 -0.00    +0.000 N 
DOCKED: ATOM      9  H   UNL     1      21.671 -20.478  -1.555 -0.31 -0.00    +0.000 HD
DOCKED: BRANCH   8  10
DOCKED: ATOM     10  O   UNL     1      19.898 -19.734  -2.208 -1.89 -0.00    +0.000 OA
DOCKED: ATOM     11  H   UNL     1      19.327 -19.010  -1.909 -0.42 -0.00    +0.000 HD
DOCKED: ENDBRANCH   8  10
DOCKED: ENDBRANCH   5   7
DOCKED: ENDBRANCH   4   5
DOCKED: ENDBRANCH   3   4
DOCKED: ENDBRANCH   2   3
DOCKED: ENDBRANCH   1   2
DOCKED: BRANCH   1  12
DOCKED: ATOM     12  C   UNL     1      25.980 -14.348  -2.013 -0.29 -0.00    +0.000 C 
DOCKED: BRANCH  12  13
DOCKED: ATOM     13  C   UNL     1      26.828 -14.150  -0.790 -0.29 -0.00    +0.000 C 
DOCKED: ATOM     14  N   UNL     1      26.209 -13.914   0.485 -0.28 -0.00    +0.000 N 
DOCKED: ATOM     15  O   UNL     1      28.084 -14.185  -0.896 -0.16 -0.00    +0.000 OA
DOCKED: ATOM     16  H   UNL     1      25.274 -14.194   0.602 +0.01 -0.00    +0.000 HD
DOCKED: BRANCH  14  17
DOCKED: ATOM     17  C   UNL     1      26.872 -13.294   1.600 -0.28 -0.00    +0.000 A 
DOCKED: ATOM     18  C   UNL     1      27.647 -14.077   2.467 -0.29 -0.00    +0.000 A 
DOCKED: ATOM     19  C   UNL     1      28.269 -13.493   3.572 -0.33 -0.00    +0.000 A 
DOCKED: ATOM     20  C   UNL     1      28.100 -12.129   3.810 -0.26 -0.00    +0.000 A 
DOCKED: ATOM     21  N   UNL     1      27.327 -11.383   2.977 -0.28 +0.00    +0.000 NA
DOCKED: ATOM     22  C   UNL     1      26.713 -11.927   1.892 -0.31 +0.00    +0.000 A 
DOCKED: ENDBRANCH  14  17
DOCKED: ENDBRANCH  12  13
DOCKED: ENDBRANCH   1  12
DOCKED: TORSDOF 9
DOCKED: TER
DOCKED: ENDMDL
________________________________________________________________________________


	BEGINNING GENETIC ALGORITHM DOCKING 83 of 100
Run: 83 Seed: 66866321 1427142749 [ Run 83 of 100 GA/GALS ]
Beginning LAMARCKIAN GENETIC ALGORITHM (LGA), with a maximum of 2500000 energy evaluations.

Final-Value: -12.939


	FINAL GENETIC ALGORITHM DOCKED STATE
	_______________________________________________


Detailed state:  trans 25.601 -18.556 0.021 quatxyzw -0.062462 -0.593855 0.758576 -0.260762 center -0.121 -0.193 0.463 ntor 9 21.6157 -45.9874 -98.6345 133.3794 24.0979 -38.7553 -107.0783 159.1585 137.8322
State:	 25.601 -18.556   0.021  -0.065 -0.615  0.786 -149.769     21.62  -45.99  -98.63  133.38   24.10  -38.76 -107.08  159.16  137.83

DOCKED: MODEL       83
DOCKED: USER    Run = 83
DOCKED: USER    DPF = ligand_dock.biased.dpf
DOCKED: USER  
DOCKED: USER    Estimated Free Energy of Binding    =   -8.96 kcal/mol  [=(1)+(2)+(3)-(4)]
DOCKED: USER    Estimated Inhibition Constant, Ki   =  271.55 nM (nanomolar)  [Temperature = 298.15 K]
DOCKED: USER    
DOCKED: USER    (1) Final Intermolecular Energy     =  -11.64 kcal/mol
DOCKED: USER        vdW + Hbond + desolv Energy     =  -11.64 kcal/mol
DOCKED: USER        Electrostatic Energy            =   +0.00 kcal/mol
DOCKED: USER    (2) Final Total Internal Energy     =   -1.30 kcal/mol
DOCKED: USER    (3) Torsional Free Energy           =   +2.68 kcal/mol
DOCKED: USER    (4) Unbound System's Energy  [=(2)] =   -1.30 kcal/mol
DOCKED: USER    
DOCKED: USER    
DOCKED: USER    NEWDPF move ligand.pdbqt
DOCKED: USER    NEWDPF about -0.121000 -0.193000 0.463000
DOCKED: USER    NEWDPF tran0 25.600773 -18.556379 0.021303
DOCKED: USER    NEWDPF quaternion0 -0.062462 -0.593855 0.758576 -0.260762
DOCKED: USER    NEWDPF axisangle0 -0.064700 -0.615137 0.785761 -149.769464
DOCKED: USER    NEWDPF quat0 -0.064700 -0.615137 0.785761 -149.769464
DOCKED: USER    NEWDPF dihe0 21.62 -45.99 -98.63 133.38 24.10 -38.76 -107.08 159.16 137.83 
DOCKED: USER  keepresnum = 1 
DOCKED: USER  
DOCKED: REMARK  Name = 
DOCKED: REMARK  9 active torsions:
DOCKED: REMARK  status: ('A' for Active; 'I' for Inactive)
DOCKED: REMARK    1  A    between atoms: C_2  and  C_5
DOCKED: REMARK    2  A    between atoms: N_3  and  O_4
DOCKED: REMARK    3  A    between atoms: C_5  and  C_6
DOCKED: REMARK    4  A    between atoms: C_6  and  C_7
DOCKED: REMARK    5  A    between atoms: C_7  and  C_8
DOCKED: REMARK    6  A    between atoms: C_8  and  C_9
DOCKED: REMARK    7  A    between atoms: C_9  and  C_10
DOCKED: REMARK    8  A    between atoms: C_10  and  C_11
DOCKED: REMARK    9  A    between atoms: N_12  and  C_13
DOCKED: REMARK                            x       y       z     vdW  Elec       q    Type
DOCKED: REMARK                         _______ _______ _______ _____ _____    ______ ____
DOCKED: USER                              x       y       z     vdW  Elec       q    Type
DOCKED: USER                           _______ _______ _______ _____ _____    ______ ____
DOCKED: ROOT
DOCKED: ATOM      1  C   UNL     1      26.526 -15.484  -0.116 -0.27 -0.00    +0.000 C 
DOCKED: ENDROOT
DOCKED: BRANCH   1   2
DOCKED: ATOM      2  C   UNL     1      25.397 -16.191  -0.882 -0.50 -0.00    +0.000 C 
DOCKED: BRANCH   2   3
DOCKED: ATOM      3  C   UNL     1      25.263 -17.654  -0.438 -0.67 -0.00    +0.000 C 
DOCKED: BRANCH   3   4
DOCKED: ATOM      4  C   UNL     1      23.800 -18.075  -0.208 -0.75 -0.00    +0.000 C 
DOCKED: BRANCH   4   5
DOCKED: ATOM      5  C   UNL     1      23.101 -18.648  -1.452 -0.77 -0.00    +0.000 C 
DOCKED: BRANCH   5   7
DOCKED: ATOM      6  O   UNL     1      21.032 -17.860  -0.553 -2.05 -0.00    +0.000 OA
DOCKED: ATOM      7  C   UNL     1      21.610 -18.707  -1.285 -0.61 -0.00    +0.000 C 
DOCKED: ATOM      8  N   UNL     1      20.848 -19.732  -1.930 -0.67 -0.00    +0.000 N 
DOCKED: ATOM      9  H   UNL     1      21.303 -20.388  -2.506 -0.54 -0.00    +0.000 HD
DOCKED: BRANCH   8  10
DOCKED: ATOM     10  O   UNL     1      19.507 -19.806  -1.756 -1.60 -0.00    +0.000 OA
DOCKED: ATOM     11  H   UNL     1      19.170 -18.943  -1.471 -0.53 -0.00    +0.000 HD
DOCKED: ENDBRANCH   8  10
DOCKED: ENDBRANCH   5   7
DOCKED: ENDBRANCH   4   5
DOCKED: ENDBRANCH   3   4
DOCKED: ENDBRANCH   2   3
DOCKED: ENDBRANCH   1   2
DOCKED: BRANCH   1  12
DOCKED: ATOM     12  C   UNL     1      27.915 -15.960  -0.561 -0.33 -0.00    +0.000 C 
DOCKED: BRANCH  12  13
DOCKED: ATOM     13  C   UNL     1      28.215 -15.532  -1.969 -0.24 -0.00    +0.000 C 
DOCKED: ATOM     14  N   UNL     1      28.207 -16.499  -3.032 -0.24 -0.00    +0.000 N 
DOCKED: ATOM     15  O   UNL     1      28.481 -14.323  -2.205 -0.13 -0.00    +0.000 OA
DOCKED: ATOM     16  H   UNL     1      27.710 -17.336  -2.891 -0.01 -0.00    +0.000 HD
DOCKED: BRANCH  14  17
DOCKED: ATOM     17  C   UNL     1      28.882 -16.319  -4.289 -0.20 -0.00    +0.000 A 
DOCKED: ATOM     18  C   UNL     1      30.041 -17.059  -4.564 -0.25 -0.00    +0.000 A 
DOCKED: ATOM     19  C   UNL     1      30.724 -16.870  -5.767 -0.25 -0.00    +0.000 A 
DOCKED: ATOM     20  C   UNL     1      30.249 -15.930  -6.683 -0.30 -0.00    +0.000 A 
DOCKED: ATOM     21  N   UNL     1      29.138 -15.201  -6.395 -0.38 -0.00    +0.000 NA
DOCKED: ATOM     22  C   UNL     1      28.453 -15.368  -5.233 -0.34 -0.00    +0.000 A 
DOCKED: ENDBRANCH  14  17
DOCKED: ENDBRANCH  12  13
DOCKED: ENDBRANCH   1  12
DOCKED: TORSDOF 9
DOCKED: TER
DOCKED: ENDMDL
________________________________________________________________________________


	BEGINNING GENETIC ALGORITHM DOCKING 84 of 100
Run: 84 Seed: 1613532471 364795496 [ Run 84 of 100 GA/GALS ]
Beginning LAMARCKIAN GENETIC ALGORITHM (LGA), with a maximum of 2500000 energy evaluations.

Final-Value: -13.441


	FINAL GENETIC ALGORITHM DOCKED STATE
	_______________________________________________


Detailed state:  trans 25.548 -17.968 0.064 quatxyzw -0.258100 -0.498672 0.825186 -0.061461 center -0.121 -0.193 0.463 ntor 9 0.4344 -143.1820 93.8436 100.1795 106.5020 -36.1299 -84.8305 -23.8429 111.6029
State:	 25.548 -17.968   0.064  -0.259 -0.500  0.827 -172.953      0.43 -143.18   93.84  100.18  106.50  -36.13  -84.83  -23.84  111.60

DOCKED: MODEL       84
DOCKED: USER    Run = 84
DOCKED: USER    DPF = ligand_dock.biased.dpf
DOCKED: USER  
DOCKED: USER    Estimated Free Energy of Binding    =   -9.36 kcal/mol  [=(1)+(2)+(3)-(4)]
DOCKED: USER    Estimated Inhibition Constant, Ki   =  136.95 nM (nanomolar)  [Temperature = 298.15 K]
DOCKED: USER    
DOCKED: USER    (1) Final Intermolecular Energy     =  -12.05 kcal/mol
DOCKED: USER        vdW + Hbond + desolv Energy     =  -12.05 kcal/mol
DOCKED: USER        Electrostatic Energy            =   +0.00 kcal/mol
DOCKED: USER    (2) Final Total Internal Energy     =   -1.39 kcal/mol
DOCKED: USER    (3) Torsional Free Energy           =   +2.68 kcal/mol
DOCKED: USER    (4) Unbound System's Energy  [=(2)] =   -1.39 kcal/mol
DOCKED: USER    
DOCKED: USER    
DOCKED: USER    NEWDPF move ligand.pdbqt
DOCKED: USER    NEWDPF about -0.121000 -0.193000 0.463000
DOCKED: USER    NEWDPF tran0 25.547922 -17.967680 0.063570
DOCKED: USER    NEWDPF quaternion0 -0.258100 -0.498672 0.825186 -0.061461
DOCKED: USER    NEWDPF axisangle0 -0.258589 -0.499617 0.826749 -172.952629
DOCKED: USER    NEWDPF quat0 -0.258589 -0.499617 0.826749 -172.952629
DOCKED: USER    NEWDPF dihe0 0.43 -143.18 93.84 100.18 106.50 -36.13 -84.83 -23.84 111.60 
DOCKED: USER  keepresnum = 1 
DOCKED: USER  
DOCKED: REMARK  Name = 
DOCKED: REMARK  9 active torsions:
DOCKED: REMARK  status: ('A' for Active; 'I' for Inactive)
DOCKED: REMARK    1  A    between atoms: C_2  and  C_5
DOCKED: REMARK    2  A    between atoms: N_3  and  O_4
DOCKED: REMARK    3  A    between atoms: C_5  and  C_6
DOCKED: REMARK    4  A    between atoms: C_6  and  C_7
DOCKED: REMARK    5  A    between atoms: C_7  and  C_8
DOCKED: REMARK    6  A    between atoms: C_8  and  C_9
DOCKED: REMARK    7  A    between atoms: C_9  and  C_10
DOCKED: REMARK    8  A    between atoms: C_10  and  C_11
DOCKED: REMARK    9  A    between atoms: N_12  and  C_13
DOCKED: REMARK                            x       y       z     vdW  Elec       q    Type
DOCKED: REMARK                         _______ _______ _______ _____ _____    ______ ____
DOCKED: USER                              x       y       z     vdW  Elec       q    Type
DOCKED: USER                           _______ _______ _______ _____ _____    ______ ____
DOCKED: ROOT
DOCKED: ATOM      1  C   UNL     1      26.413 -14.981  -0.740 -0.37 -0.00    +0.000 C 
DOCKED: ENDROOT
DOCKED: BRANCH   1   2
DOCKED: ATOM      2  C   UNL     1      25.780 -16.074  -1.614 -0.53 -0.00    +0.000 C 
DOCKED: BRANCH   2   3
DOCKED: ATOM      3  C   UNL     1      24.975 -17.064  -0.761 -0.64 -0.00    +0.000 C 
DOCKED: BRANCH   3   4
DOCKED: ATOM      4  C   UNL     1      23.632 -17.452  -1.406 -0.68 -0.00    +0.000 C 
DOCKED: BRANCH   4   5
DOCKED: ATOM      5  C   UNL     1      22.877 -18.575  -0.676 -0.84 -0.00    +0.000 C 
DOCKED: BRANCH   5   7
DOCKED: ATOM      6  O   UNL     1      20.666 -17.670  -0.716 -2.21 -0.00    +0.000 OA
DOCKED: ATOM      7  C   UNL     1      21.424 -18.618  -1.054 -0.80 -0.00    +0.000 C 
DOCKED: ATOM      8  N   UNL     1      20.894 -19.736  -1.771 -0.72 -0.00    +0.000 N 
DOCKED: ATOM      9  H   UNL     1      21.491 -20.471  -2.039 -0.46 -0.00    +0.000 HD
DOCKED: BRANCH   8  10
DOCKED: ATOM     10  O   UNL     1      19.578 -19.791  -2.085 -1.60 -0.00    +0.000 OA
DOCKED: ATOM     11  H   UNL     1      19.134 -18.993  -1.759 -0.57 -0.00    +0.000 HD
DOCKED: ENDBRANCH   8  10
DOCKED: ENDBRANCH   5   7
DOCKED: ENDBRANCH   4   5
DOCKED: ENDBRANCH   3   4
DOCKED: ENDBRANCH   2   3
DOCKED: ENDBRANCH   1   2
DOCKED: BRANCH   1  12
DOCKED: ATOM     12  C   UNL     1      27.851 -15.326  -0.330 -0.29 -0.00    +0.000 C 
DOCKED: BRANCH  12  13
DOCKED: ATOM     13  C   UNL     1      28.617 -15.928  -1.473 -0.25 -0.00    +0.000 C 
DOCKED: ATOM     14  N   UNL     1      28.989 -15.114  -2.597 -0.14 -0.00    +0.000 N 
DOCKED: ATOM     15  O   UNL     1      28.920 -17.151  -1.439 -0.34 -0.00    +0.000 OA
DOCKED: ATOM     16  H   UNL     1      29.024 -14.139  -2.470 +0.01 -0.00    +0.000 HD
DOCKED: BRANCH  14  17
DOCKED: ATOM     17  C   UNL     1      29.315 -15.637  -3.897 -0.20 -0.00    +0.000 A 
DOCKED: ATOM     18  C   UNL     1      30.387 -16.530  -4.035 -0.17 -0.00    +0.000 A 
DOCKED: ATOM     19  C   UNL     1      30.734 -17.019  -5.295 -0.23 -0.00    +0.000 A 
DOCKED: ATOM     20  C   UNL     1      30.014 -16.599  -6.414 -0.30 -0.00    +0.000 A 
DOCKED: ATOM     21  N   UNL     1      28.993 -15.713  -6.272 -0.41 -0.00    +0.000 NA
DOCKED: ATOM     22  C   UNL     1      28.632 -15.225  -5.055 -0.31 -0.00    +0.000 A 
DOCKED: ENDBRANCH  14  17
DOCKED: ENDBRANCH  12  13
DOCKED: ENDBRANCH   1  12
DOCKED: TORSDOF 9
DOCKED: TER
DOCKED: ENDMDL
________________________________________________________________________________


	BEGINNING GENETIC ALGORITHM DOCKING 85 of 100
Run: 85 Seed: 1173303634 2084657631 [ Run 85 of 100 GA/GALS ]
Beginning LAMARCKIAN GENETIC ALGORITHM (LGA), with a maximum of 2500000 energy evaluations.

Final-Value: -14.973


	FINAL GENETIC ALGORITHM DOCKED STATE
	_______________________________________________


Detailed state:  trans 25.679 -14.021 0.057 quatxyzw 0.107149 0.207823 0.831782 0.503455 center -0.121 -0.193 0.463 ntor 9 -0.7632 -166.7343 53.8639 107.8381 157.2493 168.9318 22.2975 155.7516 157.7114
State:	 25.679 -14.021   0.057   0.124  0.241  0.963 119.542     -0.76 -166.73   53.86  107.84  157.25  168.93   22.30  155.75  157.71

DOCKED: MODEL       85
DOCKED: USER    Run = 85
DOCKED: USER    DPF = ligand_dock.biased.dpf
DOCKED: USER  
DOCKED: USER    Estimated Free Energy of Binding    =  -10.92 kcal/mol  [=(1)+(2)+(3)-(4)]
DOCKED: USER    Estimated Inhibition Constant, Ki   =    9.86 nM (nanomolar)  [Temperature = 298.15 K]
DOCKED: USER    
DOCKED: USER    (1) Final Intermolecular Energy     =  -13.61 kcal/mol
DOCKED: USER        vdW + Hbond + desolv Energy     =  -13.61 kcal/mol
DOCKED: USER        Electrostatic Energy            =   +0.00 kcal/mol
DOCKED: USER    (2) Final Total Internal Energy     =   -1.37 kcal/mol
DOCKED: USER    (3) Torsional Free Energy           =   +2.68 kcal/mol
DOCKED: USER    (4) Unbound System's Energy  [=(2)] =   -1.37 kcal/mol
DOCKED: USER    
DOCKED: USER    
DOCKED: USER    NEWDPF move ligand.pdbqt
DOCKED: USER    NEWDPF about -0.121000 -0.193000 0.463000
DOCKED: USER    NEWDPF tran0 25.679358 -14.021472 0.057335
DOCKED: USER    NEWDPF quaternion0 0.107149 0.207823 0.831782 0.503455
DOCKED: USER    NEWDPF axisangle0 0.124011 0.240530 0.962687 119.542245
DOCKED: USER    NEWDPF quat0 0.124011 0.240530 0.962687 119.542245
DOCKED: USER    NEWDPF dihe0 -0.76 -166.73 53.86 107.84 157.25 168.93 22.30 155.75 157.71 
DOCKED: USER  keepresnum = 1 
DOCKED: USER  
DOCKED: REMARK  Name = 
DOCKED: REMARK  9 active torsions:
DOCKED: REMARK  status: ('A' for Active; 'I' for Inactive)
DOCKED: REMARK    1  A    between atoms: C_2  and  C_5
DOCKED: REMARK    2  A    between atoms: N_3  and  O_4
DOCKED: REMARK    3  A    between atoms: C_5  and  C_6
DOCKED: REMARK    4  A    between atoms: C_6  and  C_7
DOCKED: REMARK    5  A    between atoms: C_7  and  C_8
DOCKED: REMARK    6  A    between atoms: C_8  and  C_9
DOCKED: REMARK    7  A    between atoms: C_9  and  C_10
DOCKED: REMARK    8  A    between atoms: C_10  and  C_11
DOCKED: REMARK    9  A    between atoms: N_12  and  C_13
DOCKED: REMARK                            x       y       z     vdW  Elec       q    Type
DOCKED: REMARK                         _______ _______ _______ _____ _____    ______ ____
DOCKED: USER                              x       y       z     vdW  Elec       q    Type
DOCKED: USER                           _______ _______ _______ _____ _____    ______ ____
DOCKED: ROOT
DOCKED: ATOM      1  C   UNL     1      24.903 -15.646  -2.603 -0.32 -0.00    +0.000 C 
DOCKED: ENDROOT
DOCKED: BRANCH   1   2
DOCKED: ATOM      2  C   UNL     1      25.705 -16.116  -1.380 -0.53 -0.00    +0.000 C 
DOCKED: BRANCH   2   3
DOCKED: ATOM      3  C   UNL     1      25.211 -17.485  -0.891 -0.68 -0.00    +0.000 C 
DOCKED: BRANCH   3   4
DOCKED: ATOM      4  C   UNL     1      23.820 -17.847  -1.439 -0.75 -0.00    +0.000 C 
DOCKED: BRANCH   4   5
DOCKED: ATOM      5  C   UNL     1      22.867 -18.463  -0.401 -0.83 -0.00    +0.000 C 
DOCKED: BRANCH   5   7
DOCKED: ATOM      6  O   UNL     1      20.659 -17.604  -0.715 -2.16 +0.00    +0.000 OA
DOCKED: ATOM      7  C   UNL     1      21.459 -18.558  -0.912 -0.82 -0.00    +0.000 C 
DOCKED: ATOM      8  N   UNL     1      21.015 -19.732  -1.599 -0.72 -0.00    +0.000 N 
DOCKED: ATOM      9  H   UNL     1      21.644 -20.472  -1.757 -0.39 -0.00    +0.000 HD
DOCKED: BRANCH   8  10
DOCKED: ATOM     10  O   UNL     1      19.736 -19.833  -2.033 -1.73 -0.00    +0.000 OA
DOCKED: ATOM     11  H   UNL     1      19.247 -19.032  -1.791 -0.49 -0.00    +0.000 HD
DOCKED: ENDBRANCH   8  10
DOCKED: ENDBRANCH   5   7
DOCKED: ENDBRANCH   4   5
DOCKED: ENDBRANCH   3   4
DOCKED: ENDBRANCH   2   3
DOCKED: ENDBRANCH   1   2
DOCKED: BRANCH   1  12
DOCKED: ATOM     12  C   UNL     1      25.661 -14.592  -3.423 -0.52 -0.00    +0.000 C 
DOCKED: BRANCH  12  13
DOCKED: ATOM     13  C   UNL     1      26.553 -15.233  -4.446 -0.55 -0.00    +0.000 C 
DOCKED: ATOM     14  N   UNL     1      27.981 -15.172  -4.296 -0.31 -0.00    +0.000 N 
DOCKED: ATOM     15  O   UNL     1      26.038 -15.816  -5.438 -1.13 +0.00    +0.000 OA
DOCKED: ATOM     16  H   UNL     1      28.343 -15.001  -3.397 +0.00 -0.00    +0.000 HD
DOCKED: BRANCH  14  17
DOCKED: ATOM     17  C   UNL     1      28.913 -15.344  -5.377 -0.32 -0.00    +0.000 A 
DOCKED: ATOM     18  C   UNL     1      29.548 -16.581  -5.552 -0.27 -0.00    +0.000 A 
DOCKED: ATOM     19  C   UNL     1      30.479 -16.752  -6.578 -0.31 -0.00    +0.000 A 
DOCKED: ATOM     20  C   UNL     1      30.780 -15.677  -7.414 -0.26 -0.00    +0.000 A 
DOCKED: ATOM     21  N   UNL     1      30.177 -14.474  -7.220 -0.26 -0.00    +0.000 NA
DOCKED: ATOM     22  C   UNL     1      29.264 -14.283  -6.231 -0.28 -0.00    +0.000 A 
DOCKED: ENDBRANCH  14  17
DOCKED: ENDBRANCH  12  13
DOCKED: ENDBRANCH   1  12
DOCKED: TORSDOF 9
DOCKED: TER
DOCKED: ENDMDL
________________________________________________________________________________


	BEGINNING GENETIC ALGORITHM DOCKING 86 of 100
Run: 86 Seed: 2115536153 844060285 [ Run 86 of 100 GA/GALS ]
Beginning LAMARCKIAN GENETIC ALGORITHM (LGA), with a maximum of 2500000 energy evaluations.

Final-Value: -12.473


	FINAL GENETIC ALGORITHM DOCKED STATE
	_______________________________________________


Detailed state:  trans 25.668 -14.230 -2.488 quatxyzw -0.822238 0.381775 0.344788 -0.243502 center -0.121 -0.193 0.463 ntor 9 -179.6115 160.7291 -99.8827 179.8525 -151.2134 106.3315 -177.3893 156.2530 -61.2454
State:	 25.668 -14.230  -2.488  -0.848  0.394  0.355 -151.813   -179.61  160.73  -99.88  179.85 -151.21  106.33 -177.39  156.25  -61.25

DOCKED: MODEL       86
DOCKED: USER    Run = 86
DOCKED: USER    DPF = ligand_dock.biased.dpf
DOCKED: USER  
DOCKED: USER    Estimated Free Energy of Binding    =   -9.02 kcal/mol  [=(1)+(2)+(3)-(4)]
DOCKED: USER    Estimated Inhibition Constant, Ki   =  244.59 nM (nanomolar)  [Temperature = 298.15 K]
DOCKED: USER    
DOCKED: USER    (1) Final Intermolecular Energy     =  -11.70 kcal/mol
DOCKED: USER        vdW + Hbond + desolv Energy     =  -11.70 kcal/mol
DOCKED: USER        Electrostatic Energy            =   +0.00 kcal/mol
DOCKED: USER    (2) Final Total Internal Energy     =   -0.77 kcal/mol
DOCKED: USER    (3) Torsional Free Energy           =   +2.68 kcal/mol
DOCKED: USER    (4) Unbound System's Energy  [=(2)] =   -0.77 kcal/mol
DOCKED: USER    
DOCKED: USER    
DOCKED: USER    NEWDPF move ligand.pdbqt
DOCKED: USER    NEWDPF about -0.121000 -0.193000 0.463000
DOCKED: USER    NEWDPF tran0 25.667884 -14.229696 -2.487741
DOCKED: USER    NEWDPF quaternion0 -0.822238 0.381775 0.344788 -0.243502
DOCKED: USER    NEWDPF axisangle0 -0.847756 0.393623 0.355488 -151.813403
DOCKED: USER    NEWDPF quat0 -0.847756 0.393623 0.355488 -151.813403
DOCKED: USER    NEWDPF dihe0 -179.61 160.73 -99.88 179.85 -151.21 106.33 -177.39 156.25 -61.25 
DOCKED: USER  keepresnum = 1 
DOCKED: USER  
DOCKED: REMARK  Name = 
DOCKED: REMARK  9 active torsions:
DOCKED: REMARK  status: ('A' for Active; 'I' for Inactive)
DOCKED: REMARK    1  A    between atoms: C_2  and  C_5
DOCKED: REMARK    2  A    between atoms: N_3  and  O_4
DOCKED: REMARK    3  A    between atoms: C_5  and  C_6
DOCKED: REMARK    4  A    between atoms: C_6  and  C_7
DOCKED: REMARK    5  A    between atoms: C_7  and  C_8
DOCKED: REMARK    6  A    between atoms: C_8  and  C_9
DOCKED: REMARK    7  A    between atoms: C_9  and  C_10
DOCKED: REMARK    8  A    between atoms: C_10  and  C_11
DOCKED: REMARK    9  A    between atoms: N_12  and  C_13
DOCKED: REMARK                            x       y       z     vdW  Elec       q    Type
DOCKED: REMARK                         _______ _______ _______ _____ _____    ______ ____
DOCKED: USER                              x       y       z     vdW  Elec       q    Type
DOCKED: USER                           _______ _______ _______ _____ _____    ______ ____
DOCKED: ROOT
DOCKED: ATOM      1  C   UNL     1      27.658 -16.174  -0.882 -0.37 -0.00    +0.000 C 
DOCKED: ENDROOT
DOCKED: BRANCH   1   2
DOCKED: ATOM      2  C   UNL     1      26.608 -16.527  -1.947 -0.45 -0.00    +0.000 C 
DOCKED: BRANCH   2   3
DOCKED: ATOM      3  C   UNL     1      25.187 -16.262  -1.429 -0.57 -0.00    +0.000 C 
DOCKED: BRANCH   3   4
DOCKED: ATOM      4  C   UNL     1      24.669 -17.385  -0.512 -0.65 -0.00    +0.000 C 
DOCKED: BRANCH   4   5
DOCKED: ATOM      5  C   UNL     1      24.028 -18.568  -1.256 -0.75 -0.00    +0.000 C 
DOCKED: BRANCH   5   7
DOCKED: ATOM      6  O   UNL     1      22.197 -19.860  -0.425 -0.64 -0.00    +0.000 OA
DOCKED: ATOM      7  C   UNL     1      22.585 -18.753  -0.886 -0.83 -0.00    +0.000 C 
DOCKED: ATOM      8  N   UNL     1      21.646 -17.691  -1.076 -0.65 -0.00    +0.000 N 
DOCKED: ATOM      9  H   UNL     1      21.954 -16.826  -1.430 -0.03 -0.00    +0.000 HD
DOCKED: BRANCH   8  10
DOCKED: ATOM     10  O   UNL     1      20.338 -17.865  -0.772 -2.23 -0.00    +0.000 OA
DOCKED: ATOM     11  H   UNL     1      19.849 -17.051  -0.968 -0.57 +0.00    +0.000 HD
DOCKED: ENDBRANCH   8  10
DOCKED: ENDBRANCH   5   7
DOCKED: ENDBRANCH   4   5
DOCKED: ENDBRANCH   3   4
DOCKED: ENDBRANCH   2   3
DOCKED: ENDBRANCH   1   2
DOCKED: BRANCH   1  12
DOCKED: ATOM     12  C   UNL     1      27.017 -15.689   0.425 -0.20 -0.00    +0.000 C 
DOCKED: BRANCH  12  13
DOCKED: ATOM     13  C   UNL     1      27.653 -14.418   0.910 -0.29 -0.00    +0.000 C 
DOCKED: ATOM     14  N   UNL     1      28.476 -14.429   2.087 -0.26 -0.00    +0.000 N 
DOCKED: ATOM     15  O   UNL     1      27.452 -13.346   0.278 -0.22 -0.00    +0.000 OA
DOCKED: ATOM     16  H   UNL     1      28.864 -15.286   2.371 -1.88 -0.00    +0.000 HD
DOCKED: BRANCH  14  17
DOCKED: ATOM     17  C   UNL     1      28.766 -13.262   2.877 -0.21 -0.00    +0.000 A 
DOCKED: ATOM     18  C   UNL     1      28.153 -13.104   4.128 -0.35 -0.00    +0.000 A 
DOCKED: ATOM     19  C   UNL     1      28.400 -11.961   4.890 -0.30 +0.00    +0.000 A 
DOCKED: ATOM     20  C   UNL     1      29.251 -10.975   4.388 -0.13 +0.00    +0.000 A 
DOCKED: ATOM     21  N   UNL     1      29.821 -11.128   3.164 -0.06 -0.00    +0.000 NA
DOCKED: ATOM     22  C   UNL     1      29.599 -12.233   2.403 -0.07 -0.00    +0.000 A 
DOCKED: ENDBRANCH  14  17
DOCKED: ENDBRANCH  12  13
DOCKED: ENDBRANCH   1  12
DOCKED: TORSDOF 9
DOCKED: TER
DOCKED: ENDMDL
________________________________________________________________________________


	BEGINNING GENETIC ALGORITHM DOCKING 87 of 100
Run: 87 Seed: 1508277510 804319437 [ Run 87 of 100 GA/GALS ]
Beginning LAMARCKIAN GENETIC ALGORITHM (LGA), with a maximum of 2500000 energy evaluations.

Final-Value: -13.458


	FINAL GENETIC ALGORITHM DOCKED STATE
	_______________________________________________


Detailed state:  trans 24.319 -19.277 -2.727 quatxyzw 0.131033 -0.909486 0.266083 -0.291318 center -0.121 -0.193 0.463 ntor 9 -3.3799 -69.1878 -128.6646 162.8491 -180.0000 -30.7091 -61.2806 180.0000 109.9117
State:	 24.319 -19.277  -2.727   0.137 -0.951  0.278 -146.126     -3.38  -69.19 -128.66  162.85 -180.00  -30.71  -61.28  180.00  109.91

DOCKED: MODEL       87
DOCKED: USER    Run = 87
DOCKED: USER    DPF = ligand_dock.biased.dpf
DOCKED: USER  
DOCKED: USER    Estimated Free Energy of Binding    =   -9.43 kcal/mol  [=(1)+(2)+(3)-(4)]
DOCKED: USER    Estimated Inhibition Constant, Ki   =  122.91 nM (nanomolar)  [Temperature = 298.15 K]
DOCKED: USER    
DOCKED: USER    (1) Final Intermolecular Energy     =  -12.11 kcal/mol
DOCKED: USER        vdW + Hbond + desolv Energy     =  -12.11 kcal/mol
DOCKED: USER        Electrostatic Energy            =   +0.00 kcal/mol
DOCKED: USER    (2) Final Total Internal Energy     =   -1.35 kcal/mol
DOCKED: USER    (3) Torsional Free Energy           =   +2.68 kcal/mol
DOCKED: USER    (4) Unbound System's Energy  [=(2)] =   -1.35 kcal/mol
DOCKED: USER    
DOCKED: USER    
DOCKED: USER    NEWDPF move ligand.pdbqt
DOCKED: USER    NEWDPF about -0.121000 -0.193000 0.463000
DOCKED: USER    NEWDPF tran0 24.319113 -19.276790 -2.727321
DOCKED: USER    NEWDPF quaternion0 0.131033 -0.909486 0.266083 -0.291318
DOCKED: USER    NEWDPF axisangle0 0.136974 -0.950722 0.278147 -146.126275
DOCKED: USER    NEWDPF quat0 0.136974 -0.950722 0.278147 -146.126275
DOCKED: USER    NEWDPF dihe0 -3.38 -69.19 -128.66 162.85 -180.00 -30.71 -61.28 180.00 109.91 
DOCKED: USER  keepresnum = 1 
DOCKED: USER  
DOCKED: REMARK  Name = 
DOCKED: REMARK  9 active torsions:
DOCKED: REMARK  status: ('A' for Active; 'I' for Inactive)
DOCKED: REMARK    1  A    between atoms: C_2  and  C_5
DOCKED: REMARK    2  A    between atoms: N_3  and  O_4
DOCKED: REMARK    3  A    between atoms: C_5  and  C_6
DOCKED: REMARK    4  A    between atoms: C_6  and  C_7
DOCKED: REMARK    5  A    between atoms: C_7  and  C_8
DOCKED: REMARK    6  A    between atoms: C_8  and  C_9
DOCKED: REMARK    7  A    between atoms: C_9  and  C_10
DOCKED: REMARK    8  A    between atoms: C_10  and  C_11
DOCKED: REMARK    9  A    between atoms: N_12  and  C_13
DOCKED: REMARK                            x       y       z     vdW  Elec       q    Type
DOCKED: REMARK                         _______ _______ _______ _____ _____    ______ ____
DOCKED: USER                              x       y       z     vdW  Elec       q    Type
DOCKED: USER                           _______ _______ _______ _____ _____    ______ ____
DOCKED: ROOT
DOCKED: ATOM      1  C   UNL     1      25.501 -18.143   0.036 -0.65 -0.00    +0.000 C 
DOCKED: ENDROOT
DOCKED: BRANCH   1   2
DOCKED: ATOM      2  C   UNL     1      24.267 -17.678  -0.753 -0.75 -0.00    +0.000 C 
DOCKED: BRANCH   2   3
DOCKED: ATOM      3  C   UNL     1      23.376 -18.870  -1.135 -0.80 -0.00    +0.000 C 
DOCKED: BRANCH   3   4
DOCKED: ATOM      4  C   UNL     1      21.875 -18.534  -1.074 -0.80 -0.00    +0.000 C 
DOCKED: BRANCH   4   5
DOCKED: ATOM      5  C   UNL     1      21.098 -19.295   0.013 -0.79 -0.00    +0.000 C 
DOCKED: BRANCH   5   7
DOCKED: ATOM      6  O   UNL     1      19.515 -19.736  -1.723 -1.65 -0.00    +0.000 OA
DOCKED: ATOM      7  C   UNL     1      19.790 -19.828  -0.496 -0.85 -0.00    +0.000 C 
DOCKED: ATOM      8  N   UNL     1      18.846 -20.415   0.404 -0.74 -0.00    +0.000 N 
DOCKED: ATOM      9  H   UNL     1      19.067 -20.491   1.361 -0.05 -0.00    +0.000 HD
DOCKED: BRANCH   8  10
DOCKED: ATOM     10  O   UNL     1      17.653 -20.868  -0.048 -0.84 -0.00    +0.000 OA
DOCKED: ATOM     11  H   UNL     1      17.570 -20.673  -0.994 -0.27 -0.00    +0.000 HD
DOCKED: ENDBRANCH   8  10
DOCKED: ENDBRANCH   5   7
DOCKED: ENDBRANCH   4   5
DOCKED: ENDBRANCH   3   4
DOCKED: ENDBRANCH   2   3
DOCKED: ENDBRANCH   1   2
DOCKED: BRANCH   1  12
DOCKED: ATOM     12  C   UNL     1      26.811 -17.826  -0.697 -0.54 -0.00    +0.000 C 
DOCKED: BRANCH  12  13
DOCKED: ATOM     13  C   UNL     1      26.758 -16.476  -1.354 -0.46 -0.00    +0.000 C 
DOCKED: ATOM     14  N   UNL     1      26.204 -16.339  -2.673 -0.44 -0.00    +0.000 N 
DOCKED: ATOM     15  O   UNL     1      27.211 -15.472  -0.742 -0.32 -0.00    +0.000 OA
DOCKED: ATOM     16  H   UNL     1      25.594 -17.042  -2.992 -0.04 -0.00    +0.000 HD
DOCKED: BRANCH  14  17
DOCKED: ATOM     17  C   UNL     1      26.486 -15.239  -3.554 -0.44 -0.00    +0.000 A 
DOCKED: ATOM     18  C   UNL     1      27.703 -15.203  -4.249 -0.34 -0.00    +0.000 A 
DOCKED: ATOM     19  C   UNL     1      28.003 -14.124  -5.082 -0.28 -0.00    +0.000 A 
DOCKED: ATOM     20  C   UNL     1      27.087 -13.079  -5.205 -0.23 -0.00    +0.000 A 
DOCKED: ATOM     21  N   UNL     1      25.921 -13.112  -4.508 -0.37 -0.00    +0.000 NA
DOCKED: ATOM     22  C   UNL     1      25.603 -14.153  -3.692 -0.46 -0.00    +0.000 A 
DOCKED: ENDBRANCH  14  17
DOCKED: ENDBRANCH  12  13
DOCKED: ENDBRANCH   1  12
DOCKED: TORSDOF 9
DOCKED: TER
DOCKED: ENDMDL
________________________________________________________________________________


	BEGINNING GENETIC ALGORITHM DOCKING 88 of 100
Run: 88 Seed: 1916569333 1811246678 [ Run 88 of 100 GA/GALS ]
Beginning LAMARCKIAN GENETIC ALGORITHM (LGA), with a maximum of 2500000 energy evaluations.

Final-Value: -12.397


	FINAL GENETIC ALGORITHM DOCKED STATE
	_______________________________________________


Detailed state:  trans 20.909 -18.236 -0.866 quatxyzw 0.494796 -0.524331 -0.346085 -0.600399 center -0.121 -0.193 0.463 ntor 9 -11.0993 152.2520 -45.5153 -179.6738 119.3326 -64.6930 -111.7907 36.0133 -152.3001
State:	 20.909 -18.236  -0.866   0.619 -0.656 -0.433 -106.203    -11.10  152.25  -45.52 -179.67  119.33  -64.69 -111.79   36.01 -152.30

DOCKED: MODEL       88
DOCKED: USER    Run = 88
DOCKED: USER    DPF = ligand_dock.biased.dpf
DOCKED: USER  
DOCKED: USER    Estimated Free Energy of Binding    =   -8.60 kcal/mol  [=(1)+(2)+(3)-(4)]
DOCKED: USER    Estimated Inhibition Constant, Ki   =  497.80 nM (nanomolar)  [Temperature = 298.15 K]
DOCKED: USER    
DOCKED: USER    (1) Final Intermolecular Energy     =  -11.28 kcal/mol
DOCKED: USER        vdW + Hbond + desolv Energy     =  -11.28 kcal/mol
DOCKED: USER        Electrostatic Energy            =   +0.00 kcal/mol
DOCKED: USER    (2) Final Total Internal Energy     =   -1.11 kcal/mol
DOCKED: USER    (3) Torsional Free Energy           =   +2.68 kcal/mol
DOCKED: USER    (4) Unbound System's Energy  [=(2)] =   -1.11 kcal/mol
DOCKED: USER    
DOCKED: USER    
DOCKED: USER    NEWDPF move ligand.pdbqt
DOCKED: USER    NEWDPF about -0.121000 -0.193000 0.463000
DOCKED: USER    NEWDPF tran0 20.908555 -18.236471 -0.865927
DOCKED: USER    NEWDPF quaternion0 0.494796 -0.524331 -0.346085 -0.600399
DOCKED: USER    NEWDPF axisangle0 0.618727 -0.655659 -0.432768 -106.203035
DOCKED: USER    NEWDPF quat0 0.618727 -0.655659 -0.432768 -106.203035
DOCKED: USER    NEWDPF dihe0 -11.10 152.25 -45.52 -179.67 119.33 -64.69 -111.79 36.01 -152.30 
DOCKED: USER  keepresnum = 1 
DOCKED: USER  
DOCKED: REMARK  Name = 
DOCKED: REMARK  9 active torsions:
DOCKED: REMARK  status: ('A' for Active; 'I' for Inactive)
DOCKED: REMARK    1  A    between atoms: C_2  and  C_5
DOCKED: REMARK    2  A    between atoms: N_3  and  O_4
DOCKED: REMARK    3  A    between atoms: C_5  and  C_6
DOCKED: REMARK    4  A    between atoms: C_6  and  C_7
DOCKED: REMARK    5  A    between atoms: C_7  and  C_8
DOCKED: REMARK    6  A    between atoms: C_8  and  C_9
DOCKED: REMARK    7  A    between atoms: C_9  and  C_10
DOCKED: REMARK    8  A    between atoms: C_10  and  C_11
DOCKED: REMARK    9  A    between atoms: N_12  and  C_13
DOCKED: REMARK                            x       y       z     vdW  Elec       q    Type
DOCKED: REMARK                         _______ _______ _______ _____ _____    ______ ____
DOCKED: USER                              x       y       z     vdW  Elec       q    Type
DOCKED: USER                           _______ _______ _______ _____ _____    ______ ____
DOCKED: ROOT
DOCKED: ATOM      1  C   UNL     1      24.103 -18.283  -1.194 -0.77 -0.00    +0.000 C 
DOCKED: ENDROOT
DOCKED: BRANCH   1   2
DOCKED: ATOM      2  C   UNL     1      23.252 -18.597   0.046 -0.70 -0.00    +0.000 C 
DOCKED: BRANCH   2   3
DOCKED: ATOM      3  C   UNL     1      21.757 -18.410  -0.251 -0.82 -0.00    +0.000 C 
DOCKED: BRANCH   3   4
DOCKED: ATOM      4  C   UNL     1      20.991 -19.744  -0.307 -0.78 -0.00    +0.000 C 
DOCKED: BRANCH   4   5
DOCKED: ATOM      5  C   UNL     1      19.518 -19.612  -0.729 -0.84 -0.00    +0.000 C 
DOCKED: BRANCH   5   7
DOCKED: ATOM      6  O   UNL     1      17.642 -20.870   0.055 -0.85 -0.00    +0.000 OA
DOCKED: ATOM      7  C   UNL     1      18.579 -20.078   0.346 -0.70 -0.00    +0.000 C 
DOCKED: ATOM      8  N   UNL     1      18.727 -19.612   1.690 -0.65 -0.00    +0.000 N 
DOCKED: ATOM      9  H   UNL     1      19.464 -18.999   1.915 -0.41 -0.00    +0.000 HD
DOCKED: BRANCH   8  10
DOCKED: ATOM     10  O   UNL     1      17.863 -20.006   2.656 -0.70 -0.00    +0.000 OA
DOCKED: ATOM     11  H   UNL     1      17.107 -20.457   2.249 -0.03 -0.00    +0.000 HD
DOCKED: ENDBRANCH   8  10
DOCKED: ENDBRANCH   5   7
DOCKED: ENDBRANCH   4   5
DOCKED: ENDBRANCH   3   4
DOCKED: ENDBRANCH   2   3
DOCKED: ENDBRANCH   1   2
DOCKED: BRANCH   1  12
DOCKED: ATOM     12  C   UNL     1      24.049 -16.797  -1.574 -0.54 -0.00    +0.000 C 
DOCKED: BRANCH  12  13
DOCKED: ATOM     13  C   UNL     1      25.407 -16.278  -1.951 -0.57 -0.00    +0.000 C 
DOCKED: ATOM     14  N   UNL     1      25.584 -15.547  -3.175 -0.52 -0.00    +0.000 N 
DOCKED: ATOM     15  O   UNL     1      26.387 -16.498  -1.188 -0.47 -0.00    +0.000 OA
DOCKED: ATOM     16  H   UNL     1      24.791 -15.129  -3.581 -0.06 -0.00    +0.000 HD
DOCKED: BRANCH  14  17
DOCKED: ATOM     17  C   UNL     1      26.847 -15.389  -3.844 -0.40 -0.00    +0.000 A 
DOCKED: ATOM     18  C   UNL     1      26.872 -15.026  -5.198 -0.40 -0.00    +0.000 A 
DOCKED: ATOM     19  C   UNL     1      28.091 -14.902  -5.867 -0.36 -0.00    +0.000 A 
DOCKED: ATOM     20  C   UNL     1      29.278 -15.156  -5.179 -0.26 -0.00    +0.000 A 
DOCKED: ATOM     21  N   UNL     1      29.241 -15.531  -3.874 -0.19 -0.00    +0.000 NA
DOCKED: ATOM     22  C   UNL     1      28.067 -15.656  -3.198 -0.25 -0.00    +0.000 A 
DOCKED: ENDBRANCH  14  17
DOCKED: ENDBRANCH  12  13
DOCKED: ENDBRANCH   1  12
DOCKED: TORSDOF 9
DOCKED: TER
DOCKED: ENDMDL
________________________________________________________________________________


	BEGINNING GENETIC ALGORITHM DOCKING 89 of 100
Run: 89 Seed: 988769362 504494045 [ Run 89 of 100 GA/GALS ]
Beginning LAMARCKIAN GENETIC ALGORITHM (LGA), with a maximum of 2500000 energy evaluations.

Final-Value: -14.862


	FINAL GENETIC ALGORITHM DOCKED STATE
	_______________________________________________


Detailed state:  trans 27.935 -17.069 -2.352 quatxyzw -0.468833 0.379399 -0.794833 -0.067028 center -0.121 -0.193 0.463 ntor 9 9.2264 124.8466 -157.2553 96.1773 -175.9133 -58.5071 -13.0377 -172.2328 59.0487
State:	 27.935 -17.069  -2.352  -0.470  0.380 -0.797 -172.313      9.23  124.85 -157.26   96.18 -175.91  -58.51  -13.04 -172.23   59.05

DOCKED: MODEL       89
DOCKED: USER    Run = 89
DOCKED: USER    DPF = ligand_dock.biased.dpf
DOCKED: USER  
DOCKED: USER    Estimated Free Energy of Binding    =  -10.76 kcal/mol  [=(1)+(2)+(3)-(4)]
DOCKED: USER    Estimated Inhibition Constant, Ki   =   12.89 nM (nanomolar)  [Temperature = 298.15 K]
DOCKED: USER    
DOCKED: USER    (1) Final Intermolecular Energy     =  -13.45 kcal/mol
DOCKED: USER        vdW + Hbond + desolv Energy     =  -13.45 kcal/mol
DOCKED: USER        Electrostatic Energy            =   +0.00 kcal/mol
DOCKED: USER    (2) Final Total Internal Energy     =   -1.41 kcal/mol
DOCKED: USER    (3) Torsional Free Energy           =   +2.68 kcal/mol
DOCKED: USER    (4) Unbound System's Energy  [=(2)] =   -1.41 kcal/mol
DOCKED: USER    
DOCKED: USER    
DOCKED: USER    NEWDPF move ligand.pdbqt
DOCKED: USER    NEWDPF about -0.121000 -0.193000 0.463000
DOCKED: USER    NEWDPF tran0 27.934984 -17.069092 -2.352317
DOCKED: USER    NEWDPF quaternion0 -0.468833 0.379399 -0.794833 -0.067028
DOCKED: USER    NEWDPF axisangle0 -0.469890 0.380254 -0.796624 -172.313388
DOCKED: USER    NEWDPF quat0 -0.469890 0.380254 -0.796624 -172.313388
DOCKED: USER    NEWDPF dihe0 9.23 124.85 -157.26 96.18 -175.91 -58.51 -13.04 -172.23 59.05 
DOCKED: USER  keepresnum = 1 
DOCKED: USER  
DOCKED: REMARK  Name = 
DOCKED: REMARK  9 active torsions:
DOCKED: REMARK  status: ('A' for Active; 'I' for Inactive)
DOCKED: REMARK    1  A    between atoms: C_2  and  C_5
DOCKED: REMARK    2  A    between atoms: N_3  and  O_4
DOCKED: REMARK    3  A    between atoms: C_5  and  C_6
DOCKED: REMARK    4  A    between atoms: C_6  and  C_7
DOCKED: REMARK    5  A    between atoms: C_7  and  C_8
DOCKED: REMARK    6  A    between atoms: C_8  and  C_9
DOCKED: REMARK    7  A    between atoms: C_9  and  C_10
DOCKED: REMARK    8  A    between atoms: C_10  and  C_11
DOCKED: REMARK    9  A    between atoms: N_12  and  C_13
DOCKED: REMARK                            x       y       z     vdW  Elec       q    Type
DOCKED: REMARK                         _______ _______ _______ _____ _____    ______ ____
DOCKED: USER                              x       y       z     vdW  Elec       q    Type
DOCKED: USER                           _______ _______ _______ _____ _____    ______ ____
DOCKED: ROOT
DOCKED: ATOM      1  C   UNL     1      25.302 -15.230  -2.323 -0.41 -0.00    +0.000 C 
DOCKED: ENDROOT
DOCKED: BRANCH   1   2
DOCKED: ATOM      2  C   UNL     1      25.424 -16.743  -2.557 -0.53 -0.00    +0.000 C 
DOCKED: BRANCH   2   3
DOCKED: ATOM      3  C   UNL     1      25.143 -17.525  -1.265 -0.67 -0.00    +0.000 C 
DOCKED: BRANCH   3   4
DOCKED: ATOM      4  C   UNL     1      23.885 -18.406  -1.364 -0.76 -0.00    +0.000 C 
DOCKED: BRANCH   4   5
DOCKED: ATOM      5  C   UNL     1      22.701 -17.920  -0.512 -0.82 -0.00    +0.000 C 
DOCKED: BRANCH   5   7
DOCKED: ATOM      6  O   UNL     1      20.319 -17.853  -0.706 -2.21 -0.00    +0.000 OA
DOCKED: ATOM      7  C   UNL     1      21.388 -18.443  -1.019 -0.76 -0.00    +0.000 C 
DOCKED: ATOM      8  N   UNL     1      21.342 -19.620  -1.832 -0.52 -0.00    +0.000 N 
DOCKED: ATOM      9  H   UNL     1      22.178 -20.074  -2.079 -0.53 -0.00    +0.000 HD
DOCKED: BRANCH   8  10
DOCKED: ATOM     10  O   UNL     1      20.156 -20.112  -2.264 -1.79 -0.00    +0.000 OA
DOCKED: ATOM     11  H   UNL     1      19.450 -19.479  -2.062 -0.32 -0.00    +0.000 HD
DOCKED: ENDBRANCH   8  10
DOCKED: ENDBRANCH   5   7
DOCKED: ENDBRANCH   4   5
DOCKED: ENDBRANCH   3   4
DOCKED: ENDBRANCH   2   3
DOCKED: ENDBRANCH   1   2
DOCKED: BRANCH   1  12
DOCKED: ATOM     12  C   UNL     1      25.903 -14.414  -3.476 -0.49 -0.00    +0.000 C 
DOCKED: BRANCH  12  13
DOCKED: ATOM     13  C   UNL     1      26.693 -15.286  -4.409 -0.52 -0.00    +0.000 C 
DOCKED: ATOM     14  N   UNL     1      28.020 -15.705  -4.053 -0.31 -0.00    +0.000 N 
DOCKED: ATOM     15  O   UNL     1      26.182 -15.637  -5.507 -1.18 +0.00    +0.000 OA
DOCKED: ATOM     16  H   UNL     1      28.269 -15.689  -3.102 -0.00 -0.00    +0.000 HD
DOCKED: BRANCH  14  17
DOCKED: ATOM     17  C   UNL     1      29.007 -16.146  -5.002 -0.26 -0.00    +0.000 A 
DOCKED: ATOM     18  C   UNL     1      29.260 -15.377  -6.146 -0.33 -0.00    +0.000 A 
DOCKED: ATOM     19  C   UNL     1      30.191 -15.811  -7.090 -0.25 -0.00    +0.000 A 
DOCKED: ATOM     20  C   UNL     1      30.855 -17.021  -6.890 -0.29 -0.00    +0.000 A 
DOCKED: ATOM     21  N   UNL     1      30.584 -17.772  -5.790 -0.30 -0.00    +0.000 NA
DOCKED: ATOM     22  C   UNL     1      29.684 -17.370  -4.853 -0.18 -0.00    +0.000 A 
DOCKED: ENDBRANCH  14  17
DOCKED: ENDBRANCH  12  13
DOCKED: ENDBRANCH   1  12
DOCKED: TORSDOF 9
DOCKED: TER
DOCKED: ENDMDL
________________________________________________________________________________


	BEGINNING GENETIC ALGORITHM DOCKING 90 of 100
Run: 90 Seed: 617216099 345671571 [ Run 90 of 100 GA/GALS ]
Beginning LAMARCKIAN GENETIC ALGORITHM (LGA), with a maximum of 2500000 energy evaluations.

Final-Value: -13.738


	FINAL GENETIC ALGORITHM DOCKED STATE
	_______________________________________________


Detailed state:  trans 29.189 -16.569 -3.061 quatxyzw -0.814161 -0.535281 -0.220615 0.044091 center -0.121 -0.193 0.463 ntor 9 16.3333 -2.3644 -140.1638 104.0111 -172.7503 -129.0625 -102.3864 174.2189 -79.5166
State:	 29.189 -16.569  -3.061  -0.815 -0.536 -0.221 174.946     16.33   -2.36 -140.16  104.01 -172.75 -129.06 -102.39  174.22  -79.52

DOCKED: MODEL       90
DOCKED: USER    Run = 90
DOCKED: USER    DPF = ligand_dock.biased.dpf
DOCKED: USER  
DOCKED: USER    Estimated Free Energy of Binding    =   -8.57 kcal/mol  [=(1)+(2)+(3)-(4)]
DOCKED: USER    Estimated Inhibition Constant, Ki   =  526.09 nM (nanomolar)  [Temperature = 298.15 K]
DOCKED: USER    
DOCKED: USER    (1) Final Intermolecular Energy     =  -11.25 kcal/mol
DOCKED: USER        vdW + Hbond + desolv Energy     =  -11.25 kcal/mol
DOCKED: USER        Electrostatic Energy            =   +0.00 kcal/mol
DOCKED: USER    (2) Final Total Internal Energy     =   -2.49 kcal/mol
DOCKED: USER    (3) Torsional Free Energy           =   +2.68 kcal/mol
DOCKED: USER    (4) Unbound System's Energy  [=(2)] =   -2.49 kcal/mol
DOCKED: USER    
DOCKED: USER    
DOCKED: USER    NEWDPF move ligand.pdbqt
DOCKED: USER    NEWDPF about -0.121000 -0.193000 0.463000
DOCKED: USER    NEWDPF tran0 29.188949 -16.568693 -3.061027
DOCKED: USER    NEWDPF quaternion0 -0.814161 -0.535281 -0.220615 0.044091
DOCKED: USER    NEWDPF axisangle0 -0.814954 -0.535802 -0.220830 174.945921
DOCKED: USER    NEWDPF quat0 -0.814954 -0.535802 -0.220830 174.945921
DOCKED: USER    NEWDPF dihe0 16.33 -2.36 -140.16 104.01 -172.75 -129.06 -102.39 174.22 -79.52 
DOCKED: USER  keepresnum = 1 
DOCKED: USER  
DOCKED: REMARK  Name = 
DOCKED: REMARK  9 active torsions:
DOCKED: REMARK  status: ('A' for Active; 'I' for Inactive)
DOCKED: REMARK    1  A    between atoms: C_2  and  C_5
DOCKED: REMARK    2  A    between atoms: N_3  and  O_4
DOCKED: REMARK    3  A    between atoms: C_5  and  C_6
DOCKED: REMARK    4  A    between atoms: C_6  and  C_7
DOCKED: REMARK    5  A    between atoms: C_7  and  C_8
DOCKED: REMARK    6  A    between atoms: C_8  and  C_9
DOCKED: REMARK    7  A    between atoms: C_9  and  C_10
DOCKED: REMARK    8  A    between atoms: C_10  and  C_11
DOCKED: REMARK    9  A    between atoms: N_12  and  C_13
DOCKED: REMARK                            x       y       z     vdW  Elec       q    Type
DOCKED: REMARK                         _______ _______ _______ _____ _____    ______ ____
DOCKED: USER                              x       y       z     vdW  Elec       q    Type
DOCKED: USER                           _______ _______ _______ _____ _____    ______ ____
DOCKED: ROOT
DOCKED: ATOM      1  C   UNL     1      27.581 -16.243  -0.299 -0.37 -0.00    +0.000 C 
DOCKED: ENDROOT
DOCKED: BRANCH   1   2
DOCKED: ATOM      2  C   UNL     1      29.096 -16.188  -0.551 -0.24 -0.00    +0.000 C 
DOCKED: BRANCH   2   3
DOCKED: ATOM      3  C   UNL     1      29.405 -16.199  -2.055 -0.21 -0.00    +0.000 C 
DOCKED: BRANCH   3   4
DOCKED: ATOM      4  C   UNL     1      28.502 -15.244  -2.855 -0.22 -0.00    +0.000 C 
DOCKED: BRANCH   4   5
DOCKED: ATOM      5  C   UNL     1      27.428 -15.945  -3.702 -0.17 -0.00    +0.000 C 
DOCKED: BRANCH   5   7
DOCKED: ATOM      6  O   UNL     1      26.639 -14.175  -5.100 -0.45 -0.00    +0.000 OA
DOCKED: ATOM      7  C   UNL     1      26.371 -14.991  -4.178 -0.54 -0.00    +0.000 C 
DOCKED: ATOM      8  N   UNL     1      25.074 -14.985  -3.575 -0.45 -0.00    +0.000 N 
DOCKED: ATOM      9  H   UNL     1      24.867 -15.628  -2.859 -0.04 -0.00    +0.000 HD
DOCKED: BRANCH   8  10
DOCKED: ATOM     10  O   UNL     1      24.129 -14.104  -3.980 -0.98 -0.00    +0.000 OA
DOCKED: ATOM     11  H   UNL     1      24.383 -13.729  -4.838 -0.39 -0.00    +0.000 HD
DOCKED: ENDBRANCH   8  10
DOCKED: ENDBRANCH   5   7
DOCKED: ENDBRANCH   4   5
DOCKED: ENDBRANCH   3   4
DOCKED: ENDBRANCH   2   3
DOCKED: ENDBRANCH   1   2
DOCKED: BRANCH   1  12
DOCKED: ATOM     12  C   UNL     1      27.010 -17.652  -0.508 -0.53 -0.00    +0.000 C 
DOCKED: BRANCH  12  13
DOCKED: ATOM     13  C   UNL     1      25.586 -17.601  -0.983 -0.65 -0.00    +0.000 C 
DOCKED: ATOM     14  N   UNL     1      24.510 -17.634  -0.033 -0.58 -0.00    +0.000 N 
DOCKED: ATOM     15  O   UNL     1      25.349 -17.537  -2.219 -0.61 -0.00    +0.000 OA
DOCKED: ATOM     16  H   UNL     1      24.705 -17.374   0.896 +0.07 -0.00    +0.000 HD
DOCKED: BRANCH  14  17
DOCKED: ATOM     17  C   UNL     1      23.164 -18.025  -0.354 -0.72 -0.00    +0.000 A 
DOCKED: ATOM     18  C   UNL     1      22.899 -19.349  -0.732 -0.66 -0.00    +0.000 A 
DOCKED: ATOM     19  C   UNL     1      21.602 -19.733  -1.078 -0.28 -0.00    +0.000 A 
DOCKED: ATOM     20  C   UNL     1      20.579 -18.784  -1.058 -0.73 -0.00    +0.000 A 
DOCKED: ATOM     21  N   UNL     1      20.852 -17.498  -0.714 -1.92 +0.00    +0.000 NA
DOCKED: ATOM     22  C   UNL     1      22.105 -17.099  -0.369 -0.59 -0.00    +0.000 A 
DOCKED: ENDBRANCH  14  17
DOCKED: ENDBRANCH  12  13
DOCKED: ENDBRANCH   1  12
DOCKED: TORSDOF 9
DOCKED: TER
DOCKED: ENDMDL
________________________________________________________________________________


	BEGINNING GENETIC ALGORITHM DOCKING 91 of 100
Run: 91 Seed: 480368748 222398216 [ Run 91 of 100 GA/GALS ]
Beginning LAMARCKIAN GENETIC ALGORITHM (LGA), with a maximum of 2500000 energy evaluations.

Final-Value: -13.496


	FINAL GENETIC ALGORITHM DOCKED STATE
	_______________________________________________


Detailed state:  trans 24.763 -17.854 -3.119 quatxyzw 0.233763 -0.962018 0.047952 -0.132578 center -0.121 -0.193 0.463 ntor 9 -19.5699 -54.6352 98.4657 171.5186 -177.1749 -44.2283 -35.4123 -169.8643 67.9085
State:	 24.763 -17.854  -3.119   0.236 -0.971  0.048 -164.763    -19.57  -54.64   98.47  171.52 -177.17  -44.23  -35.41 -169.86   67.91

DOCKED: MODEL       91
DOCKED: USER    Run = 91
DOCKED: USER    DPF = ligand_dock.biased.dpf
DOCKED: USER  
DOCKED: USER    Estimated Free Energy of Binding    =   -9.51 kcal/mol  [=(1)+(2)+(3)-(4)]
DOCKED: USER    Estimated Inhibition Constant, Ki   =  107.42 nM (nanomolar)  [Temperature = 298.15 K]
DOCKED: USER    
DOCKED: USER    (1) Final Intermolecular Energy     =  -12.19 kcal/mol
DOCKED: USER        vdW + Hbond + desolv Energy     =  -12.19 kcal/mol
DOCKED: USER        Electrostatic Energy            =   +0.00 kcal/mol
DOCKED: USER    (2) Final Total Internal Energy     =   -1.30 kcal/mol
DOCKED: USER    (3) Torsional Free Energy           =   +2.68 kcal/mol
DOCKED: USER    (4) Unbound System's Energy  [=(2)] =   -1.30 kcal/mol
DOCKED: USER    
DOCKED: USER    
DOCKED: USER    NEWDPF move ligand.pdbqt
DOCKED: USER    NEWDPF about -0.121000 -0.193000 0.463000
DOCKED: USER    NEWDPF tran0 24.763455 -17.854077 -3.118881
DOCKED: USER    NEWDPF quaternion0 0.233763 -0.962018 0.047952 -0.132578
DOCKED: USER    NEWDPF axisangle0 0.235845 -0.970586 0.048379 -164.762869
DOCKED: USER    NEWDPF quat0 0.235845 -0.970586 0.048379 -164.762869
DOCKED: USER    NEWDPF dihe0 -19.57 -54.64 98.47 171.52 -177.17 -44.23 -35.41 -169.86 67.91 
DOCKED: USER  keepresnum = 1 
DOCKED: USER  
DOCKED: REMARK  Name = 
DOCKED: REMARK  9 active torsions:
DOCKED: REMARK  status: ('A' for Active; 'I' for Inactive)
DOCKED: REMARK    1  A    between atoms: C_2  and  C_5
DOCKED: REMARK    2  A    between atoms: N_3  and  O_4
DOCKED: REMARK    3  A    between atoms: C_5  and  C_6
DOCKED: REMARK    4  A    between atoms: C_6  and  C_7
DOCKED: REMARK    5  A    between atoms: C_7  and  C_8
DOCKED: REMARK    6  A    between atoms: C_8  and  C_9
DOCKED: REMARK    7  A    between atoms: C_9  and  C_10
DOCKED: REMARK    8  A    between atoms: C_10  and  C_11
DOCKED: REMARK    9  A    between atoms: N_12  and  C_13
DOCKED: REMARK                            x       y       z     vdW  Elec       q    Type
DOCKED: REMARK                         _______ _______ _______ _____ _____    ______ ____
DOCKED: USER                              x       y       z     vdW  Elec       q    Type
DOCKED: USER                           _______ _______ _______ _____ _____    ______ ____
DOCKED: ROOT
DOCKED: ATOM      1  C   UNL     1      25.252 -18.233   0.033 -0.67 -0.00    +0.000 C 
DOCKED: ENDROOT
DOCKED: BRANCH   1   2
DOCKED: ATOM      2  C   UNL     1      24.102 -17.515  -0.690 -0.74 -0.00    +0.000 C 
DOCKED: BRANCH   2   3
DOCKED: ATOM      3  C   UNL     1      23.124 -18.525  -1.308 -0.78 -0.00    +0.000 C 
DOCKED: BRANCH   3   4
DOCKED: ATOM      4  C   UNL     1      21.658 -18.235  -0.941 -0.76 -0.00    +0.000 C 
DOCKED: BRANCH   4   5
DOCKED: ATOM      5  C   UNL     1      21.020 -19.275  -0.004 -0.80 -0.00    +0.000 C 
DOCKED: BRANCH   5   7
DOCKED: ATOM      6  O   UNL     1      19.499 -19.734  -1.789 -1.65 -0.00    +0.000 OA
DOCKED: ATOM      7  C   UNL     1      19.731 -19.815  -0.553 -0.84 -0.00    +0.000 C 
DOCKED: ATOM      8  N   UNL     1      18.758 -20.395   0.319 -0.74 -0.00    +0.000 N 
DOCKED: ATOM      9  H   UNL     1      18.946 -20.462   1.283 -0.04 -0.00    +0.000 HD
DOCKED: BRANCH   8  10
DOCKED: ATOM     10  O   UNL     1      17.582 -20.855  -0.169 -0.82 -0.00    +0.000 OA
DOCKED: ATOM     11  H   UNL     1      17.414 -20.455  -1.037 -0.37 -0.00    +0.000 HD
DOCKED: ENDBRANCH   8  10
DOCKED: ENDBRANCH   5   7
DOCKED: ENDBRANCH   4   5
DOCKED: ENDBRANCH   3   4
DOCKED: ENDBRANCH   2   3
DOCKED: ENDBRANCH   1   2
DOCKED: BRANCH   1  12
DOCKED: ATOM     12  C   UNL     1      26.587 -17.491  -0.122 -0.56 -0.00    +0.000 C 
DOCKED: BRANCH  12  13
DOCKED: ATOM     13  C   UNL     1      26.439 -16.274  -0.990 -0.48 -0.00    +0.000 C 
DOCKED: ATOM     14  N   UNL     1      26.333 -16.415  -2.415 -0.43 -0.00    +0.000 N 
DOCKED: ATOM     15  O   UNL     1      26.418 -15.132  -0.455 -0.38 -0.00    +0.000 OA
DOCKED: ATOM     16  H   UNL     1      26.043 -17.285  -2.772 -0.02 -0.00    +0.000 HD
DOCKED: BRANCH  14  17
DOCKED: ATOM     17  C   UNL     1      26.624 -15.364  -3.353 -0.41 -0.00    +0.000 A 
DOCKED: ATOM     18  C   UNL     1      25.967 -14.132  -3.236 -0.38 -0.00    +0.000 A 
DOCKED: ATOM     19  C   UNL     1      26.216 -13.114  -4.159 -0.33 -0.00    +0.000 A 
DOCKED: ATOM     20  C   UNL     1      27.111 -13.343  -5.203 -0.24 -0.00    +0.000 A 
DOCKED: ATOM     21  N   UNL     1      27.724 -14.550  -5.322 -0.43 -0.00    +0.000 NA
DOCKED: ATOM     22  C   UNL     1      27.502 -15.556  -4.434 -0.33 -0.00    +0.000 A 
DOCKED: ENDBRANCH  14  17
DOCKED: ENDBRANCH  12  13
DOCKED: ENDBRANCH   1  12
DOCKED: TORSDOF 9
DOCKED: TER
DOCKED: ENDMDL
________________________________________________________________________________


	BEGINNING GENETIC ALGORITHM DOCKING 92 of 100
Run: 92 Seed: 87264005 958436030 [ Run 92 of 100 GA/GALS ]
Beginning LAMARCKIAN GENETIC ALGORITHM (LGA), with a maximum of 2500000 energy evaluations.

Final-Value: -13.880


	FINAL GENETIC ALGORITHM DOCKED STATE
	_______________________________________________


Detailed state:  trans 24.536 -19.098 -1.755 quatxyzw 0.684848 -0.332218 0.125623 -0.636265 center -0.121 -0.193 0.463 ntor 9 30.9041 -24.8104 141.6140 135.9363 80.0124 58.4585 -111.9094 -50.8714 -99.7787
State:	 24.536 -19.098  -1.755   0.888 -0.431  0.163 -100.972     30.90  -24.81  141.61  135.94   80.01   58.46 -111.91  -50.87  -99.78

DOCKED: MODEL       92
DOCKED: USER    Run = 92
DOCKED: USER    DPF = ligand_dock.biased.dpf
DOCKED: USER  
DOCKED: USER    Estimated Free Energy of Binding    =  -10.16 kcal/mol  [=(1)+(2)+(3)-(4)]
DOCKED: USER    Estimated Inhibition Constant, Ki   =   35.95 nM (nanomolar)  [Temperature = 298.15 K]
DOCKED: USER    
DOCKED: USER    (1) Final Intermolecular Energy     =  -12.84 kcal/mol
DOCKED: USER        vdW + Hbond + desolv Energy     =  -12.84 kcal/mol
DOCKED: USER        Electrostatic Energy            =   +0.00 kcal/mol
DOCKED: USER    (2) Final Total Internal Energy     =   -1.04 kcal/mol
DOCKED: USER    (3) Torsional Free Energy           =   +2.68 kcal/mol
DOCKED: USER    (4) Unbound System's Energy  [=(2)] =   -1.04 kcal/mol
DOCKED: USER    
DOCKED: USER    
DOCKED: USER    NEWDPF move ligand.pdbqt
DOCKED: USER    NEWDPF about -0.121000 -0.193000 0.463000
DOCKED: USER    NEWDPF tran0 24.536264 -19.098129 -1.755170
DOCKED: USER    NEWDPF quaternion0 0.684848 -0.332218 0.125623 -0.636265
DOCKED: USER    NEWDPF axisangle0 0.887718 -0.430629 0.162836 -100.972264
DOCKED: USER    NEWDPF quat0 0.887718 -0.430629 0.162836 -100.972264
DOCKED: USER    NEWDPF dihe0 30.90 -24.81 141.61 135.94 80.01 58.46 -111.91 -50.87 -99.78 
DOCKED: USER  keepresnum = 1 
DOCKED: USER  
DOCKED: REMARK  Name = 
DOCKED: REMARK  9 active torsions:
DOCKED: REMARK  status: ('A' for Active; 'I' for Inactive)
DOCKED: REMARK    1  A    between atoms: C_2  and  C_5
DOCKED: REMARK    2  A    between atoms: N_3  and  O_4
DOCKED: REMARK    3  A    between atoms: C_5  and  C_6
DOCKED: REMARK    4  A    between atoms: C_6  and  C_7
DOCKED: REMARK    5  A    between atoms: C_7  and  C_8
DOCKED: REMARK    6  A    between atoms: C_8  and  C_9
DOCKED: REMARK    7  A    between atoms: C_9  and  C_10
DOCKED: REMARK    8  A    between atoms: C_10  and  C_11
DOCKED: REMARK    9  A    between atoms: N_12  and  C_13
DOCKED: REMARK                            x       y       z     vdW  Elec       q    Type
DOCKED: REMARK                         _______ _______ _______ _____ _____    ______ ____
DOCKED: USER                              x       y       z     vdW  Elec       q    Type
DOCKED: USER                           _______ _______ _______ _____ _____    ______ ____
DOCKED: ROOT
DOCKED: ATOM      1  C   UNL     1      26.178 -16.359  -1.414 -0.50 -0.00    +0.000 C 
DOCKED: ENDROOT
DOCKED: BRANCH   1   2
DOCKED: ATOM      2  C   UNL     1      25.584 -17.274  -0.331 -0.58 -0.00    +0.000 C 
DOCKED: BRANCH   2   3
DOCKED: ATOM      3  C   UNL     1      24.844 -18.463  -0.961 -0.64 -0.00    +0.000 C 
DOCKED: BRANCH   3   4
DOCKED: ATOM      4  C   UNL     1      23.408 -18.619  -0.430 -0.81 -0.00    +0.000 C 
DOCKED: BRANCH   4   5
DOCKED: ATOM      5  C   UNL     1      22.401 -19.143  -1.467 -0.67 -0.00    +0.000 C 
DOCKED: BRANCH   5   7
DOCKED: ATOM      6  O   UNL     1      20.633 -17.725  -0.708 -2.25 -0.00    +0.000 OA
DOCKED: ATOM      7  C   UNL     1      20.980 -18.886  -1.055 -0.85 -0.00    +0.000 C 
DOCKED: ATOM      8  N   UNL     1      20.028 -19.954  -1.029 -0.78 -0.00    +0.000 N 
DOCKED: ATOM      9  H   UNL     1      20.302 -20.857  -1.307 -0.50 -0.00    +0.000 HD
DOCKED: BRANCH   8  10
DOCKED: ATOM     10  O   UNL     1      18.754 -19.731  -0.628 -0.92 -0.00    +0.000 OA
DOCKED: ATOM     11  H   UNL     1      18.498 -18.823  -0.853 -0.57 -0.00    +0.000 HD
DOCKED: ENDBRANCH   8  10
DOCKED: ENDBRANCH   5   7
DOCKED: ENDBRANCH   4   5
DOCKED: ENDBRANCH   3   4
DOCKED: ENDBRANCH   2   3
DOCKED: ENDBRANCH   1   2
DOCKED: BRANCH   1  12
DOCKED: ATOM     12  C   UNL     1      25.091 -15.648  -2.232 -0.47 -0.00    +0.000 C 
DOCKED: BRANCH  12  13
DOCKED: ATOM     13  C   UNL     1      25.673 -14.955  -3.431 -0.55 -0.00    +0.000 C 
DOCKED: ATOM     14  N   UNL     1      26.670 -15.614  -4.229 -0.48 -0.00    +0.000 N 
DOCKED: ATOM     15  O   UNL     1      25.284 -13.792  -3.722 -0.63 -0.00    +0.000 OA
DOCKED: ATOM     16  H   UNL     1      26.726 -16.595  -4.179 +0.11 -0.00    +0.000 HD
DOCKED: BRANCH  14  17
DOCKED: ATOM     17  C   UNL     1      27.589 -14.928  -5.095 -0.39 -0.00    +0.000 A 
DOCKED: ATOM     18  C   UNL     1      27.383 -13.573  -5.391 -0.25 -0.00    +0.000 A 
DOCKED: ATOM     19  C   UNL     1      28.249 -12.904  -6.257 -0.21 -0.00    +0.000 A 
DOCKED: ATOM     20  C   UNL     1      29.311 -13.600  -6.834 -0.25 -0.00    +0.000 A 
DOCKED: ATOM     21  N   UNL     1      29.489 -14.920  -6.560 -0.33 -0.00    +0.000 NA
DOCKED: ATOM     22  C   UNL     1      28.661 -15.594  -5.717 -0.32 -0.00    +0.000 A 
DOCKED: ENDBRANCH  14  17
DOCKED: ENDBRANCH  12  13
DOCKED: ENDBRANCH   1  12
DOCKED: TORSDOF 9
DOCKED: TER
DOCKED: ENDMDL
________________________________________________________________________________


	BEGINNING GENETIC ALGORITHM DOCKING 93 of 100
Run: 93 Seed: 394410944 1760838295 [ Run 93 of 100 GA/GALS ]
Beginning LAMARCKIAN GENETIC ALGORITHM (LGA), with a maximum of 2500000 energy evaluations.

Final-Value: -13.614


	FINAL GENETIC ALGORITHM DOCKED STATE
	_______________________________________________


Detailed state:  trans 22.765 -16.137 -0.679 quatxyzw 0.299417 -0.410487 -0.559433 -0.654893 center -0.121 -0.193 0.463 ntor 9 -0.5411 -38.4315 -177.3721 -152.4884 -162.7282 -49.7882 -90.7011 18.0976 180.0000
State:	 22.765 -16.137  -0.679   0.396 -0.543 -0.740 -98.177     -0.54  -38.43 -177.37 -152.49 -162.73  -49.79  -90.70   18.10  180.00

DOCKED: MODEL       93
DOCKED: USER    Run = 93
DOCKED: USER    DPF = ligand_dock.biased.dpf
DOCKED: USER  
DOCKED: USER    Estimated Free Energy of Binding    =   -9.67 kcal/mol  [=(1)+(2)+(3)-(4)]
DOCKED: USER    Estimated Inhibition Constant, Ki   =   81.00 nM (nanomolar)  [Temperature = 298.15 K]
DOCKED: USER    
DOCKED: USER    (1) Final Intermolecular Energy     =  -12.36 kcal/mol
DOCKED: USER        vdW + Hbond + desolv Energy     =  -12.36 kcal/mol
DOCKED: USER        Electrostatic Energy            =   +0.00 kcal/mol
DOCKED: USER    (2) Final Total Internal Energy     =   -1.26 kcal/mol
DOCKED: USER    (3) Torsional Free Energy           =   +2.68 kcal/mol
DOCKED: USER    (4) Unbound System's Energy  [=(2)] =   -1.26 kcal/mol
DOCKED: USER    
DOCKED: USER    
DOCKED: USER    NEWDPF move ligand.pdbqt
DOCKED: USER    NEWDPF about -0.121000 -0.193000 0.463000
DOCKED: USER    NEWDPF tran0 22.765239 -16.136935 -0.678705
DOCKED: USER    NEWDPF quaternion0 0.299417 -0.410487 -0.559433 -0.654893
DOCKED: USER    NEWDPF axisangle0 0.396201 -0.543172 -0.740263 -98.176956
DOCKED: USER    NEWDPF quat0 0.396201 -0.543172 -0.740263 -98.176956
DOCKED: USER    NEWDPF dihe0 -0.54 -38.43 -177.37 -152.49 -162.73 -49.79 -90.70 18.10 180.00 
DOCKED: USER  keepresnum = 1 
DOCKED: USER  
DOCKED: REMARK  Name = 
DOCKED: REMARK  9 active torsions:
DOCKED: REMARK  status: ('A' for Active; 'I' for Inactive)
DOCKED: REMARK    1  A    between atoms: C_2  and  C_5
DOCKED: REMARK    2  A    between atoms: N_3  and  O_4
DOCKED: REMARK    3  A    between atoms: C_5  and  C_6
DOCKED: REMARK    4  A    between atoms: C_6  and  C_7
DOCKED: REMARK    5  A    between atoms: C_7  and  C_8
DOCKED: REMARK    6  A    between atoms: C_8  and  C_9
DOCKED: REMARK    7  A    between atoms: C_9  and  C_10
DOCKED: REMARK    8  A    between atoms: C_10  and  C_11
DOCKED: REMARK    9  A    between atoms: N_12  and  C_13
DOCKED: REMARK                            x       y       z     vdW  Elec       q    Type
DOCKED: REMARK                         _______ _______ _______ _____ _____    ______ ____
DOCKED: USER                              x       y       z     vdW  Elec       q    Type
DOCKED: USER                           _______ _______ _______ _____ _____    ______ ____
DOCKED: ROOT
DOCKED: ATOM      1  C   UNL     1      25.158 -17.080  -2.603 -0.43 -0.00    +0.000 C 
DOCKED: ENDROOT
DOCKED: BRANCH   1   2
DOCKED: ATOM      2  C   UNL     1      25.012 -17.251  -1.083 -0.67 -0.00    +0.000 C 
DOCKED: BRANCH   2   3
DOCKED: ATOM      3  C   UNL     1      23.547 -17.102  -0.650 -0.67 -0.00    +0.000 C 
DOCKED: BRANCH   3   4
DOCKED: ATOM      4  C   UNL     1      23.030 -18.323   0.132 -0.69 -0.00    +0.000 C 
DOCKED: BRANCH   4   5
DOCKED: ATOM      5  C   UNL     1      22.257 -19.343  -0.722 -0.77 -0.00    +0.000 C 
DOCKED: BRANCH   5   7
DOCKED: ATOM      6  O   UNL     1      20.382 -17.864  -0.784 -2.24 -0.00    +0.000 OA
DOCKED: ATOM      7  C   UNL     1      20.784 -19.058  -0.748 -0.90 -0.00    +0.000 C 
DOCKED: ATOM      8  N   UNL     1      19.837 -20.129  -0.707 -0.74 -0.00    +0.000 N 
DOCKED: ATOM      9  H   UNL     1      20.154 -21.060  -0.686 -0.37 -0.00    +0.000 HD
DOCKED: BRANCH   8  10
DOCKED: ATOM     10  O   UNL     1      18.507 -19.872  -0.699 -0.76 -0.00    +0.000 OA
DOCKED: ATOM     11  H   UNL     1      18.362 -18.914  -0.715 -0.60 -0.00    +0.000 HD
DOCKED: ENDBRANCH   8  10
DOCKED: ENDBRANCH   5   7
DOCKED: ENDBRANCH   4   5
DOCKED: ENDBRANCH   3   4
DOCKED: ENDBRANCH   2   3
DOCKED: ENDBRANCH   1   2
DOCKED: BRANCH   1  12
DOCKED: ATOM     12  C   UNL     1      25.365 -15.614  -3.004 -0.51 -0.00    +0.000 C 
DOCKED: BRANCH  12  13
DOCKED: ATOM     13  C   UNL     1      26.763 -15.372  -3.497 -0.45 -0.00    +0.000 C 
DOCKED: ATOM     14  N   UNL     1      26.994 -15.056  -4.879 -0.47 -0.00    +0.000 N 
DOCKED: ATOM     15  O   UNL     1      27.726 -15.458  -2.689 -0.27 -0.00    +0.000 OA
DOCKED: ATOM     16  H   UNL     1      26.243 -14.695  -5.401 -0.04 -0.00    +0.000 HD
DOCKED: BRANCH  14  17
DOCKED: ATOM     17  C   UNL     1      28.256 -15.234  -5.545 -0.37 -0.00    +0.000 A 
DOCKED: ATOM     18  C   UNL     1      29.131 -16.240  -5.113 -0.27 -0.00    +0.000 A 
DOCKED: ATOM     19  C   UNL     1      30.372 -16.402  -5.731 -0.26 -0.00    +0.000 A 
DOCKED: ATOM     20  C   UNL     1      30.736 -15.544  -6.769 -0.25 -0.00    +0.000 A 
DOCKED: ATOM     21  N   UNL     1      29.891 -14.556  -7.164 -0.29 -0.00    +0.000 NA
DOCKED: ATOM     22  C   UNL     1      28.675 -14.380  -6.581 -0.32 -0.00    +0.000 A 
DOCKED: ENDBRANCH  14  17
DOCKED: ENDBRANCH  12  13
DOCKED: ENDBRANCH   1  12
DOCKED: TORSDOF 9
DOCKED: TER
DOCKED: ENDMDL
________________________________________________________________________________


	BEGINNING GENETIC ALGORITHM DOCKING 94 of 100
Run: 94 Seed: 809278340 1644771199 [ Run 94 of 100 GA/GALS ]
Beginning LAMARCKIAN GENETIC ALGORITHM (LGA), with a maximum of 2500000 energy evaluations.

Final-Value: -13.654


	FINAL GENETIC ALGORITHM DOCKED STATE
	_______________________________________________


Detailed state:  trans 24.056 -17.164 -2.136 quatxyzw 0.665839 -0.609209 -0.286669 -0.321472 center -0.121 -0.193 0.463 ntor 9 -11.0936 -177.6324 -179.6098 -178.0700 -139.1969 53.4032 -95.6350 -130.4214 -36.7815
State:	 24.056 -17.164  -2.136   0.703 -0.643 -0.303 -142.496    -11.09 -177.63 -179.61 -178.07 -139.20   53.40  -95.64 -130.42  -36.78

DOCKED: MODEL       94
DOCKED: USER    Run = 94
DOCKED: USER    DPF = ligand_dock.biased.dpf
DOCKED: USER  
DOCKED: USER    Estimated Free Energy of Binding    =   -9.57 kcal/mol  [=(1)+(2)+(3)-(4)]
DOCKED: USER    Estimated Inhibition Constant, Ki   =   97.22 nM (nanomolar)  [Temperature = 298.15 K]
DOCKED: USER    
DOCKED: USER    (1) Final Intermolecular Energy     =  -12.25 kcal/mol
DOCKED: USER        vdW + Hbond + desolv Energy     =  -12.25 kcal/mol
DOCKED: USER        Electrostatic Energy            =   +0.00 kcal/mol
DOCKED: USER    (2) Final Total Internal Energy     =   -1.40 kcal/mol
DOCKED: USER    (3) Torsional Free Energy           =   +2.68 kcal/mol
DOCKED: USER    (4) Unbound System's Energy  [=(2)] =   -1.40 kcal/mol
DOCKED: USER    
DOCKED: USER    
DOCKED: USER    NEWDPF move ligand.pdbqt
DOCKED: USER    NEWDPF about -0.121000 -0.193000 0.463000
DOCKED: USER    NEWDPF tran0 24.055979 -17.163870 -2.135807
DOCKED: USER    NEWDPF quaternion0 0.665839 -0.609209 -0.286669 -0.321472
DOCKED: USER    NEWDPF axisangle0 0.703163 -0.643359 -0.302738 -142.496101
DOCKED: USER    NEWDPF quat0 0.703163 -0.643359 -0.302738 -142.496101
DOCKED: USER    NEWDPF dihe0 -11.09 -177.63 -179.61 -178.07 -139.20 53.40 -95.64 -130.42 -36.78 
DOCKED: USER  keepresnum = 1 
DOCKED: USER  
DOCKED: REMARK  Name = 
DOCKED: REMARK  9 active torsions:
DOCKED: REMARK  status: ('A' for Active; 'I' for Inactive)
DOCKED: REMARK    1  A    between atoms: C_2  and  C_5
DOCKED: REMARK    2  A    between atoms: N_3  and  O_4
DOCKED: REMARK    3  A    between atoms: C_5  and  C_6
DOCKED: REMARK    4  A    between atoms: C_6  and  C_7
DOCKED: REMARK    5  A    between atoms: C_7  and  C_8
DOCKED: REMARK    6  A    between atoms: C_8  and  C_9
DOCKED: REMARK    7  A    between atoms: C_9  and  C_10
DOCKED: REMARK    8  A    between atoms: C_10  and  C_11
DOCKED: REMARK    9  A    between atoms: N_12  and  C_13
DOCKED: REMARK                            x       y       z     vdW  Elec       q    Type
DOCKED: REMARK                         _______ _______ _______ _____ _____    ______ ____
DOCKED: USER                              x       y       z     vdW  Elec       q    Type
DOCKED: USER                           _______ _______ _______ _____ _____    ______ ____
DOCKED: ROOT
DOCKED: ATOM      1  C   UNL     1      26.910 -17.507  -0.702 -0.54 -0.00    +0.000 C 
DOCKED: ENDROOT
DOCKED: BRANCH   1   2
DOCKED: ATOM      2  C   UNL     1      25.549 -18.102  -0.307 -0.69 -0.00    +0.000 C 
DOCKED: BRANCH   2   3
DOCKED: ATOM      3  C   UNL     1      24.540 -17.981  -1.458 -0.69 -0.00    +0.000 C 
DOCKED: BRANCH   3   4
DOCKED: ATOM      4  C   UNL     1      23.178 -17.431  -1.000 -0.73 -0.00    +0.000 C 
DOCKED: BRANCH   4   5
DOCKED: ATOM      5  C   UNL     1      22.330 -18.427  -0.192 -0.82 -0.00    +0.000 C 
DOCKED: BRANCH   5   7
DOCKED: ATOM      6  O   UNL     1      19.971 -18.238  -0.525 -1.74 -0.00    +0.000 OA
DOCKED: ATOM      7  C   UNL     1      21.049 -18.778  -0.892 -0.85 -0.00    +0.000 C 
DOCKED: ATOM      8  N   UNL     1      21.042 -19.736  -1.955 -0.56 -0.00    +0.000 N 
DOCKED: ATOM      9  H   UNL     1      21.887 -20.150  -2.243 -0.56 -0.00    +0.000 HD
DOCKED: BRANCH   8  10
DOCKED: ATOM     10  O   UNL     1      19.884 -20.077  -2.567 -1.67 -0.00    +0.000 OA
DOCKED: ATOM     11  H   UNL     1      19.135 -19.723  -2.063 -0.45 -0.00    +0.000 HD
DOCKED: ENDBRANCH   8  10
DOCKED: ENDBRANCH   5   7
DOCKED: ENDBRANCH   4   5
DOCKED: ENDBRANCH   3   4
DOCKED: ENDBRANCH   2   3
DOCKED: ENDBRANCH   1   2
DOCKED: BRANCH   1  12
DOCKED: ATOM     12  C   UNL     1      26.954 -15.985  -0.508 -0.40 -0.00    +0.000 C 
DOCKED: BRANCH  12  13
DOCKED: ATOM     13  C   UNL     1      26.916 -15.264  -1.825 -0.34 -0.00    +0.000 C 
DOCKED: ATOM     14  N   UNL     1      27.596 -15.811  -2.965 -0.29 -0.00    +0.000 N 
DOCKED: ATOM     15  O   UNL     1      26.289 -14.174  -1.915 -0.32 -0.00    +0.000 OA
DOCKED: ATOM     16  H   UNL     1      27.802 -16.773  -2.962 -0.02 -0.00    +0.000 HD
DOCKED: BRANCH  14  17
DOCKED: ATOM     17  C   UNL     1      27.997 -15.040  -4.111 -0.29 -0.00    +0.000 A 
DOCKED: ATOM     18  C   UNL     1      28.254 -13.669  -3.967 -0.15 -0.00    +0.000 A 
DOCKED: ATOM     19  C   UNL     1      28.611 -12.903  -5.078 -0.14 -0.00    +0.000 A 
DOCKED: ATOM     20  C   UNL     1      28.696 -13.511  -6.330 -0.26 -0.00    +0.000 A 
DOCKED: ATOM     21  N   UNL     1      28.421 -14.836  -6.463 -0.47 -0.00    +0.000 NA
DOCKED: ATOM     22  C   UNL     1      28.074 -15.605  -5.397 -0.26 +0.00    +0.000 A 
DOCKED: ENDBRANCH  14  17
DOCKED: ENDBRANCH  12  13
DOCKED: ENDBRANCH   1  12
DOCKED: TORSDOF 9
DOCKED: TER
DOCKED: ENDMDL
________________________________________________________________________________


	BEGINNING GENETIC ALGORITHM DOCKING 95 of 100
Run: 95 Seed: 2082726705 1061574813 [ Run 95 of 100 GA/GALS ]
Beginning LAMARCKIAN GENETIC ALGORITHM (LGA), with a maximum of 2500000 energy evaluations.

Final-Value: -12.621


	FINAL GENETIC ALGORITHM DOCKED STATE
	_______________________________________________


Detailed state:  trans 27.110 -17.144 -3.252 quatxyzw 0.400761 -0.534044 0.689002 -0.281893 center -0.121 -0.193 0.463 ntor 9 -174.6908 12.6277 -167.3624 95.9883 -170.1380 -6.2748 -64.3711 -165.1122 24.2355
State:	 27.110 -17.144  -3.252   0.418 -0.557  0.718 -147.254   -174.69   12.63 -167.36   95.99 -170.14   -6.27  -64.37 -165.11   24.24

DOCKED: MODEL       95
DOCKED: USER    Run = 95
DOCKED: USER    DPF = ligand_dock.biased.dpf
DOCKED: USER  
DOCKED: USER    Estimated Free Energy of Binding    =   -8.95 kcal/mol  [=(1)+(2)+(3)-(4)]
DOCKED: USER    Estimated Inhibition Constant, Ki   =  273.41 nM (nanomolar)  [Temperature = 298.15 K]
DOCKED: USER    
DOCKED: USER    (1) Final Intermolecular Energy     =  -11.64 kcal/mol
DOCKED: USER        vdW + Hbond + desolv Energy     =  -11.64 kcal/mol
DOCKED: USER        Electrostatic Energy            =   +0.00 kcal/mol
DOCKED: USER    (2) Final Total Internal Energy     =   -0.98 kcal/mol
DOCKED: USER    (3) Torsional Free Energy           =   +2.68 kcal/mol
DOCKED: USER    (4) Unbound System's Energy  [=(2)] =   -0.98 kcal/mol
DOCKED: USER    
DOCKED: USER    
DOCKED: USER    NEWDPF move ligand.pdbqt
DOCKED: USER    NEWDPF about -0.121000 -0.193000 0.463000
DOCKED: USER    NEWDPF tran0 27.110443 -17.144086 -3.251587
DOCKED: USER    NEWDPF quaternion0 0.400761 -0.534044 0.689002 -0.281893
DOCKED: USER    NEWDPF axisangle0 0.417701 -0.556617 0.718125 -147.253594
DOCKED: USER    NEWDPF quat0 0.417701 -0.556617 0.718125 -147.253594
DOCKED: USER    NEWDPF dihe0 -174.69 12.63 -167.36 95.99 -170.14 -6.27 -64.37 -165.11 24.24 
DOCKED: USER  keepresnum = 1 
DOCKED: USER  
DOCKED: REMARK  Name = 
DOCKED: REMARK  9 active torsions:
DOCKED: REMARK  status: ('A' for Active; 'I' for Inactive)
DOCKED: REMARK    1  A    between atoms: C_2  and  C_5
DOCKED: REMARK    2  A    between atoms: N_3  and  O_4
DOCKED: REMARK    3  A    between atoms: C_5  and  C_6
DOCKED: REMARK    4  A    between atoms: C_6  and  C_7
DOCKED: REMARK    5  A    between atoms: C_7  and  C_8
DOCKED: REMARK    6  A    between atoms: C_8  and  C_9
DOCKED: REMARK    7  A    between atoms: C_9  and  C_10
DOCKED: REMARK    8  A    between atoms: C_10  and  C_11
DOCKED: REMARK    9  A    between atoms: N_12  and  C_13
DOCKED: REMARK                            x       y       z     vdW  Elec       q    Type
DOCKED: REMARK                         _______ _______ _______ _____ _____    ______ ____
DOCKED: USER                              x       y       z     vdW  Elec       q    Type
DOCKED: USER                           _______ _______ _______ _____ _____    ______ ____
DOCKED: ROOT
DOCKED: ATOM      1  C   UNL     1      26.549 -14.026  -2.720 -0.31 -0.00    +0.000 C 
DOCKED: ENDROOT
DOCKED: BRANCH   1   2
DOCKED: ATOM      2  C   UNL     1      25.547 -15.186  -2.833 -0.52 -0.00    +0.000 C 
DOCKED: BRANCH   2   3
DOCKED: ATOM      3  C   UNL     1      26.010 -16.397  -2.011 -0.52 -0.00    +0.000 C 
DOCKED: BRANCH   3   4
DOCKED: ATOM      4  C   UNL     1      24.911 -17.461  -1.847 -0.65 -0.00    +0.000 C 
DOCKED: BRANCH   4   5
DOCKED: ATOM      5  C   UNL     1      24.249 -17.483  -0.459 -0.68 -0.00    +0.000 C 
DOCKED: BRANCH   5   7
DOCKED: ATOM      6  O   UNL     1      22.766 -19.353  -0.336 -0.80 -0.00    +0.000 OA
DOCKED: ATOM      7  C   UNL     1      22.885 -18.108  -0.493 -0.82 -0.00    +0.000 C 
DOCKED: ATOM      8  N   UNL     1      21.725 -17.304  -0.726 -0.71 -0.00    +0.000 N 
DOCKED: ATOM      9  H   UNL     1      21.821 -16.331  -0.841 -0.05 -0.00    +0.000 HD
DOCKED: BRANCH   8  10
DOCKED: ATOM     10  O   UNL     1      20.496 -17.870  -0.788 -2.28 -0.00    +0.000 OA
DOCKED: ATOM     11  H   UNL     1      19.842 -17.197  -1.034 -0.58 -0.00    +0.000 HD
DOCKED: ENDBRANCH   8  10
DOCKED: ENDBRANCH   5   7
DOCKED: ENDBRANCH   4   5
DOCKED: ENDBRANCH   3   4
DOCKED: ENDBRANCH   2   3
DOCKED: ENDBRANCH   1   2
DOCKED: BRANCH   1  12
DOCKED: ATOM     12  C   UNL     1      27.228 -13.713  -4.060 -0.30 -0.00    +0.000 C 
DOCKED: BRANCH  12  13
DOCKED: ATOM     13  C   UNL     1      27.691 -14.967  -4.746 -0.41 -0.00    +0.000 C 
DOCKED: ATOM     14  N   UNL     1      28.811 -15.700  -4.225 -0.27 -0.00    +0.000 N 
DOCKED: ATOM     15  O   UNL     1      27.093 -15.361  -5.783 -1.07 +0.00    +0.000 OA
DOCKED: ATOM     16  H   UNL     1      29.054 -15.563  -3.282 +0.00 -0.00    +0.000 HD
DOCKED: BRANCH  14  17
DOCKED: ATOM     17  C   UNL     1      29.600 -16.621  -4.998 -0.27 -0.00    +0.000 A 
DOCKED: ATOM     18  C   UNL     1      29.908 -16.319  -6.332 -0.31 -0.00    +0.000 A 
DOCKED: ATOM     19  C   UNL     1      30.645 -17.219  -7.103 -0.29 -0.00    +0.000 A 
DOCKED: ATOM     20  C   UNL     1      31.059 -18.425  -6.536 -0.29 -0.00    +0.000 A 
DOCKED: ATOM     21  N   UNL     1      30.734 -18.719  -5.250 -0.29 -0.00    +0.000 NA
DOCKED: ATOM     22  C   UNL     1      30.020 -17.858  -4.476 -0.20 -0.00    +0.000 A 
DOCKED: ENDBRANCH  14  17
DOCKED: ENDBRANCH  12  13
DOCKED: ENDBRANCH   1  12
DOCKED: TORSDOF 9
DOCKED: TER
DOCKED: ENDMDL
________________________________________________________________________________


	BEGINNING GENETIC ALGORITHM DOCKING 96 of 100
Run: 96 Seed: 544586258 189126053 [ Run 96 of 100 GA/GALS ]
Beginning LAMARCKIAN GENETIC ALGORITHM (LGA), with a maximum of 2500000 energy evaluations.

Final-Value: -12.612


	FINAL GENETIC ALGORITHM DOCKED STATE
	_______________________________________________


Detailed state:  trans 24.481 -15.234 -1.149 quatxyzw 0.614419 -0.205927 0.133542 0.749833 center -0.121 -0.193 0.463 ntor 9 -1.5651 40.0849 149.7413 -172.7611 140.4876 99.8827 -38.6920 149.8199 -113.8706
State:	 24.481 -15.234  -1.149   0.929 -0.311  0.202 82.848     -1.57   40.08  149.74 -172.76  140.49   99.88  -38.69  149.82 -113.87

DOCKED: MODEL       96
DOCKED: USER    Run = 96
DOCKED: USER    DPF = ligand_dock.biased.dpf
DOCKED: USER  
DOCKED: USER    Estimated Free Energy of Binding    =   -8.85 kcal/mol  [=(1)+(2)+(3)-(4)]
DOCKED: USER    Estimated Inhibition Constant, Ki   =  325.98 nM (nanomolar)  [Temperature = 298.15 K]
DOCKED: USER    
DOCKED: USER    (1) Final Intermolecular Energy     =  -11.53 kcal/mol
DOCKED: USER        vdW + Hbond + desolv Energy     =  -11.53 kcal/mol
DOCKED: USER        Electrostatic Energy            =   +0.00 kcal/mol
DOCKED: USER    (2) Final Total Internal Energy     =   -1.08 kcal/mol
DOCKED: USER    (3) Torsional Free Energy           =   +2.68 kcal/mol
DOCKED: USER    (4) Unbound System's Energy  [=(2)] =   -1.08 kcal/mol
DOCKED: USER    
DOCKED: USER    
DOCKED: USER    NEWDPF move ligand.pdbqt
DOCKED: USER    NEWDPF about -0.121000 -0.193000 0.463000
DOCKED: USER    NEWDPF tran0 24.480823 -15.233808 -1.149294
DOCKED: USER    NEWDPF quaternion0 0.614419 -0.205927 0.133542 0.749833
DOCKED: USER    NEWDPF axisangle0 0.928649 -0.311243 0.201838 82.848155
DOCKED: USER    NEWDPF quat0 0.928649 -0.311243 0.201838 82.848155
DOCKED: USER    NEWDPF dihe0 -1.57 40.08 149.74 -172.76 140.49 99.88 -38.69 149.82 -113.87 
DOCKED: USER  keepresnum = 1 
DOCKED: USER  
DOCKED: REMARK  Name = 
DOCKED: REMARK  9 active torsions:
DOCKED: REMARK  status: ('A' for Active; 'I' for Inactive)
DOCKED: REMARK    1  A    between atoms: C_2  and  C_5
DOCKED: REMARK    2  A    between atoms: N_3  and  O_4
DOCKED: REMARK    3  A    between atoms: C_5  and  C_6
DOCKED: REMARK    4  A    between atoms: C_6  and  C_7
DOCKED: REMARK    5  A    between atoms: C_7  and  C_8
DOCKED: REMARK    6  A    between atoms: C_8  and  C_9
DOCKED: REMARK    7  A    between atoms: C_9  and  C_10
DOCKED: REMARK    8  A    between atoms: C_10  and  C_11
DOCKED: REMARK    9  A    between atoms: N_12  and  C_13
DOCKED: REMARK                            x       y       z     vdW  Elec       q    Type
DOCKED: REMARK                         _______ _______ _______ _____ _____    ______ ____
DOCKED: USER                              x       y       z     vdW  Elec       q    Type
DOCKED: USER                           _______ _______ _______ _____ _____    ______ ____
DOCKED: ROOT
DOCKED: ATOM      1  C   UNL     1      23.605 -18.324  -1.091 -0.81 -0.00    +0.000 C 
DOCKED: ENDROOT
DOCKED: BRANCH   1   2
DOCKED: ATOM      2  C   UNL     1      24.358 -17.550  -2.185 -0.43 -0.00    +0.000 C 
DOCKED: BRANCH   2   3
DOCKED: ATOM      3  C   UNL     1      25.791 -17.223  -1.741 -0.54 -0.00    +0.000 C 
DOCKED: BRANCH   3   4
DOCKED: ATOM      4  C   UNL     1      25.880 -15.917  -0.931 -0.47 -0.00    +0.000 C 
DOCKED: BRANCH   4   5
DOCKED: ATOM      5  C   UNL     1      27.245 -15.213  -1.008 -0.31 -0.00    +0.000 C 
DOCKED: BRANCH   5   7
DOCKED: ATOM      6  O   UNL     1      29.071 -15.881   0.381 -0.21 -0.00    +0.000 OA
DOCKED: ATOM      7  C   UNL     1      27.978 -15.259   0.301 -0.28 -0.00    +0.000 C 
DOCKED: ATOM      8  N   UNL     1      27.433 -14.622   1.460 -0.28 -0.00    +0.000 N 
DOCKED: ATOM      9  H   UNL     1      26.583 -14.131   1.392 -0.02 -0.00    +0.000 HD
DOCKED: BRANCH   8  10
DOCKED: ATOM     10  O   UNL     1      28.077 -14.688   2.649 -0.36 -0.00    +0.000 OA
DOCKED: ATOM     11  H   UNL     1      28.880 -15.224   2.553 -1.95 -0.00    +0.000 HD
DOCKED: ENDBRANCH   8  10
DOCKED: ENDBRANCH   5   7
DOCKED: ENDBRANCH   4   5
DOCKED: ENDBRANCH   3   4
DOCKED: ENDBRANCH   2   3
DOCKED: ENDBRANCH   1   2
DOCKED: BRANCH   1  12
DOCKED: ATOM     12  C   UNL     1      22.145 -17.869  -0.961 -0.71 -0.00    +0.000 C 
DOCKED: BRANCH  12  13
DOCKED: ATOM     13  C   UNL     1      21.400 -18.701   0.043 -0.72 -0.00    +0.000 C 
DOCKED: ATOM     14  N   UNL     1      20.293 -19.515  -0.375 -0.79 -0.00    +0.000 N 
DOCKED: ATOM     15  O   UNL     1      21.751 -18.669   1.254 -0.52 -0.00    +0.000 OA
DOCKED: ATOM     16  H   UNL     1      20.237 -19.764  -1.326 -0.07 -0.00    +0.000 HD
DOCKED: BRANCH  14  17
DOCKED: ATOM     17  C   UNL     1      19.262 -19.989   0.508 -0.70 -0.00    +0.000 A 
DOCKED: ATOM     18  C   UNL     1      19.353 -19.724   1.882 -0.60 -0.00    +0.000 A 
DOCKED: ATOM     19  C   UNL     1      18.376 -20.207   2.754 -0.34 -0.00    +0.000 A 
DOCKED: ATOM     20  C   UNL     1      17.320 -20.964   2.247 -0.53 -0.00    +0.000 A 
DOCKED: ATOM     21  N   UNL     1      17.255 -21.236   0.917 -0.62 -0.00    +0.000 NA
DOCKED: ATOM     22  C   UNL     1      18.191 -20.775   0.045 -0.29 -0.00    +0.000 A 
DOCKED: ENDBRANCH  14  17
DOCKED: ENDBRANCH  12  13
DOCKED: ENDBRANCH   1  12
DOCKED: TORSDOF 9
DOCKED: TER
DOCKED: ENDMDL
________________________________________________________________________________


	BEGINNING GENETIC ALGORITHM DOCKING 97 of 100
Run: 97 Seed: 2020811515 1451287846 [ Run 97 of 100 GA/GALS ]
Beginning LAMARCKIAN GENETIC ALGORITHM (LGA), with a maximum of 2500000 energy evaluations.

Final-Value: -13.428


	FINAL GENETIC ALGORITHM DOCKED STATE
	_______________________________________________


Detailed state:  trans 25.881 -14.524 -3.383 quatxyzw -0.461057 0.850616 0.215138 0.132641 center -0.121 -0.193 0.463 ntor 9 -126.0982 -109.7844 67.8020 169.0839 138.8267 -41.3647 -8.0352 -154.3462 170.0739
State:	 25.881 -14.524  -3.383  -0.465  0.858  0.217 164.755   -126.10 -109.78   67.80  169.08  138.83  -41.36   -8.04 -154.35  170.07

DOCKED: MODEL       97
DOCKED: USER    Run = 97
DOCKED: USER    DPF = ligand_dock.biased.dpf
DOCKED: USER  
DOCKED: USER    Estimated Free Energy of Binding    =   -9.96 kcal/mol  [=(1)+(2)+(3)-(4)]
DOCKED: USER    Estimated Inhibition Constant, Ki   =   50.42 nM (nanomolar)  [Temperature = 298.15 K]
DOCKED: USER    
DOCKED: USER    (1) Final Intermolecular Energy     =  -12.64 kcal/mol
DOCKED: USER        vdW + Hbond + desolv Energy     =  -12.64 kcal/mol
DOCKED: USER        Electrostatic Energy            =   +0.00 kcal/mol
DOCKED: USER    (2) Final Total Internal Energy     =   -0.79 kcal/mol
DOCKED: USER    (3) Torsional Free Energy           =   +2.68 kcal/mol
DOCKED: USER    (4) Unbound System's Energy  [=(2)] =   -0.79 kcal/mol
DOCKED: USER    
DOCKED: USER    
DOCKED: USER    NEWDPF move ligand.pdbqt
DOCKED: USER    NEWDPF about -0.121000 -0.193000 0.463000
DOCKED: USER    NEWDPF tran0 25.881437 -14.524243 -3.383010
DOCKED: USER    NEWDPF quaternion0 -0.461057 0.850616 0.215138 0.132641
DOCKED: USER    NEWDPF axisangle0 -0.465167 0.858199 0.217056 164.755482
DOCKED: USER    NEWDPF quat0 -0.465167 0.858199 0.217056 164.755482
DOCKED: USER    NEWDPF dihe0 -126.10 -109.78 67.80 169.08 138.83 -41.36 -8.04 -154.35 170.07 
DOCKED: USER  keepresnum = 1 
DOCKED: USER  
DOCKED: REMARK  Name = 
DOCKED: REMARK  9 active torsions:
DOCKED: REMARK  status: ('A' for Active; 'I' for Inactive)
DOCKED: REMARK    1  A    between atoms: C_2  and  C_5
DOCKED: REMARK    2  A    between atoms: N_3  and  O_4
DOCKED: REMARK    3  A    between atoms: C_5  and  C_6
DOCKED: REMARK    4  A    between atoms: C_6  and  C_7
DOCKED: REMARK    5  A    between atoms: C_7  and  C_8
DOCKED: REMARK    6  A    between atoms: C_8  and  C_9
DOCKED: REMARK    7  A    between atoms: C_9  and  C_10
DOCKED: REMARK    8  A    between atoms: C_10  and  C_11
DOCKED: REMARK    9  A    between atoms: N_12  and  C_13
DOCKED: REMARK                            x       y       z     vdW  Elec       q    Type
DOCKED: REMARK                         _______ _______ _______ _____ _____    ______ ____
DOCKED: USER                              x       y       z     vdW  Elec       q    Type
DOCKED: USER                           _______ _______ _______ _____ _____    ______ ____
DOCKED: ROOT
DOCKED: ATOM      1  C   UNL     1      27.330 -16.116  -0.999 -0.39 -0.00    +0.000 C 
DOCKED: ENDROOT
DOCKED: BRANCH   1   2
DOCKED: ATOM      2  C   UNL     1      25.851 -15.730  -1.147 -0.47 -0.00    +0.000 C 
DOCKED: BRANCH   2   3
DOCKED: ATOM      3  C   UNL     1      25.009 -16.935  -1.588 -0.64 -0.00    +0.000 C 
DOCKED: BRANCH   3   4
DOCKED: ATOM      4  C   UNL     1      23.728 -17.105  -0.752 -0.69 -0.00    +0.000 C 
DOCKED: BRANCH   4   5
DOCKED: ATOM      5  C   UNL     1      23.179 -18.541  -0.714 -0.83 -0.00    +0.000 C 
DOCKED: BRANCH   5   7
DOCKED: ATOM      6  O   UNL     1      20.963 -17.646  -0.714 -2.12 -0.00    +0.000 OA
DOCKED: ATOM      7  C   UNL     1      21.717 -18.596  -1.054 -0.81 -0.00    +0.000 C 
DOCKED: ATOM      8  N   UNL     1      21.174 -19.729  -1.737 -0.60 -0.00    +0.000 N 
DOCKED: ATOM      9  H   UNL     1      21.768 -20.467  -2.007 -0.47 -0.00    +0.000 HD
DOCKED: BRANCH   8  10
DOCKED: ATOM     10  O   UNL     1      19.851 -19.796  -2.017 -1.84 -0.00    +0.000 OA
DOCKED: ATOM     11  H   UNL     1      19.488 -20.625  -1.669 -0.61 -0.00    +0.000 HD
DOCKED: ENDBRANCH   8  10
DOCKED: ENDBRANCH   5   7
DOCKED: ENDBRANCH   4   5
DOCKED: ENDBRANCH   3   4
DOCKED: ENDBRANCH   2   3
DOCKED: ENDBRANCH   1   2
DOCKED: BRANCH   1  12
DOCKED: ATOM     12  C   UNL     1      28.229 -14.891  -0.777 -0.21 -0.00    +0.000 C 
DOCKED: BRANCH  12  13
DOCKED: ATOM     13  C   UNL     1      28.575 -14.721   0.674 -0.22 -0.00    +0.000 C 
DOCKED: ATOM     14  N   UNL     1      27.534 -14.517   1.643 -0.29 -0.00    +0.000 N 
DOCKED: ATOM     15  O   UNL     1      29.784 -14.751   1.030 -0.18 -0.00    +0.000 OA
DOCKED: ATOM     16  H   UNL     1      26.622 -14.802   1.407 -0.00 -0.00    +0.000 HD
DOCKED: BRANCH  14  17
DOCKED: ATOM     17  C   UNL     1      27.742 -13.923   2.936 -0.34 -0.00    +0.000 A 
DOCKED: ATOM     18  C   UNL     1      28.149 -14.726   4.010 -0.45 -0.00    +0.000 A 
DOCKED: ATOM     19  C   UNL     1      28.323 -14.168   5.277 -0.45 -0.00    +0.000 A 
DOCKED: ATOM     20  C   UNL     1      28.073 -12.808   5.465 -0.41 -0.00    +0.000 A 
DOCKED: ATOM     21  N   UNL     1      27.655 -12.043   4.422 -0.33 +0.00    +0.000 NA
DOCKED: ATOM     22  C   UNL     1      27.481 -12.562   3.177 -0.28 -0.00    +0.000 A 
DOCKED: ENDBRANCH  14  17
DOCKED: ENDBRANCH  12  13
DOCKED: ENDBRANCH   1  12
DOCKED: TORSDOF 9
DOCKED: TER
DOCKED: ENDMDL
________________________________________________________________________________


	BEGINNING GENETIC ALGORITHM DOCKING 98 of 100
Run: 98 Seed: 92086932 33888305 [ Run 98 of 100 GA/GALS ]
Beginning LAMARCKIAN GENETIC ALGORITHM (LGA), with a maximum of 2500000 energy evaluations.

Final-Value: -14.670


	FINAL GENETIC ALGORITHM DOCKED STATE
	_______________________________________________


Detailed state:  trans 22.690 -17.166 -3.616 quatxyzw 0.773082 0.574907 -0.005276 0.267952 center -0.121 -0.193 0.463 ntor 9 108.1112 105.8616 -40.7278 44.4624 -147.9593 44.6718 79.3664 -164.1725 -65.4325
State:	 22.690 -17.166  -3.616   0.802  0.597 -0.005 148.915    108.11  105.86  -40.73   44.46 -147.96   44.67   79.37 -164.17  -65.43

DOCKED: MODEL       98
DOCKED: USER    Run = 98
DOCKED: USER    DPF = ligand_dock.biased.dpf
DOCKED: USER  
DOCKED: USER    Estimated Free Energy of Binding    =  -11.25 kcal/mol  [=(1)+(2)+(3)-(4)]
DOCKED: USER    Estimated Inhibition Constant, Ki   =    5.70 nM (nanomolar)  [Temperature = 298.15 K]
DOCKED: USER    
DOCKED: USER    (1) Final Intermolecular Energy     =  -13.93 kcal/mol
DOCKED: USER        vdW + Hbond + desolv Energy     =  -13.93 kcal/mol
DOCKED: USER        Electrostatic Energy            =   +0.00 kcal/mol
DOCKED: USER    (2) Final Total Internal Energy     =   -0.74 kcal/mol
DOCKED: USER    (3) Torsional Free Energy           =   +2.68 kcal/mol
DOCKED: USER    (4) Unbound System's Energy  [=(2)] =   -0.74 kcal/mol
DOCKED: USER    
DOCKED: USER    
DOCKED: USER    NEWDPF move ligand.pdbqt
DOCKED: USER    NEWDPF about -0.121000 -0.193000 0.463000
DOCKED: USER    NEWDPF tran0 22.690242 -17.165817 -3.615504
DOCKED: USER    NEWDPF quaternion0 0.773082 0.574907 -0.005276 0.267952
DOCKED: USER    NEWDPF axisangle0 0.802425 0.596728 -0.005476 148.915102
DOCKED: USER    NEWDPF quat0 0.802425 0.596728 -0.005476 148.915102
DOCKED: USER    NEWDPF dihe0 108.11 105.86 -40.73 44.46 -147.96 44.67 79.37 -164.17 -65.43 
DOCKED: USER  keepresnum = 1 
DOCKED: USER  
DOCKED: REMARK  Name = 
DOCKED: REMARK  9 active torsions:
DOCKED: REMARK  status: ('A' for Active; 'I' for Inactive)
DOCKED: REMARK    1  A    between atoms: C_2  and  C_5
DOCKED: REMARK    2  A    between atoms: N_3  and  O_4
DOCKED: REMARK    3  A    between atoms: C_5  and  C_6
DOCKED: REMARK    4  A    between atoms: C_6  and  C_7
DOCKED: REMARK    5  A    between atoms: C_7  and  C_8
DOCKED: REMARK    6  A    between atoms: C_8  and  C_9
DOCKED: REMARK    7  A    between atoms: C_9  and  C_10
DOCKED: REMARK    8  A    between atoms: C_10  and  C_11
DOCKED: REMARK    9  A    between atoms: N_12  and  C_13
DOCKED: REMARK                            x       y       z     vdW  Elec       q    Type
DOCKED: REMARK                         _______ _______ _______ _____ _____    ______ ____
DOCKED: USER                              x       y       z     vdW  Elec       q    Type
DOCKED: USER                           _______ _______ _______ _____ _____    ______ ____
DOCKED: ROOT
DOCKED: ATOM      1  C   UNL     1      23.294 -17.741  -0.513 -0.78 -0.00    +0.000 C 
DOCKED: ENDROOT
DOCKED: BRANCH   1   2
DOCKED: ATOM      2  C   UNL     1      24.238 -17.207  -1.602 -0.65 -0.00    +0.000 C 
DOCKED: BRANCH   2   3
DOCKED: ATOM      3  C   UNL     1      25.689 -17.169  -1.101 -0.61 -0.00    +0.000 C 
DOCKED: BRANCH   3   4
DOCKED: ATOM      4  C   UNL     1      26.455 -15.927  -1.589 -0.44 -0.00    +0.000 C 
DOCKED: BRANCH   4   5
DOCKED: ATOM      5  C   UNL     1      27.019 -16.047  -3.015 -0.30 -0.00    +0.000 C 
DOCKED: BRANCH   5   7
DOCKED: ATOM      6  O   UNL     1      26.555 -15.256  -5.222 -1.05 +0.00    +0.000 OA
DOCKED: ATOM      7  C   UNL     1      26.236 -15.232  -4.003 -0.56 -0.00    +0.000 C 
DOCKED: ATOM      8  N   UNL     1      25.149 -14.411  -3.566 -0.53 -0.00    +0.000 N 
DOCKED: ATOM      9  H   UNL     1      24.899 -14.400  -2.614 -0.03 -0.00    +0.000 HD
DOCKED: BRANCH   8  10
DOCKED: ATOM     10  O   UNL     1      24.461 -13.651  -4.451 -1.02 -0.00    +0.000 OA
DOCKED: ATOM     11  H   UNL     1      23.580 -14.031  -4.588 -0.59 -0.00    +0.000 HD
DOCKED: ENDBRANCH   8  10
DOCKED: ENDBRANCH   5   7
DOCKED: ENDBRANCH   4   5
DOCKED: ENDBRANCH   3   4
DOCKED: ENDBRANCH   2   3
DOCKED: ENDBRANCH   1   2
DOCKED: BRANCH   1  12
DOCKED: ATOM     12  C   UNL     1      22.909 -19.208  -0.749 -0.78 -0.00    +0.000 C 
DOCKED: BRANCH  12  13
DOCKED: ATOM     13  C   UNL     1      21.439 -19.430  -0.536 -0.79 -0.00    +0.000 C 
DOCKED: ATOM     14  N   UNL     1      20.886 -19.365   0.788 -0.63 -0.00    +0.000 N 
DOCKED: ATOM     15  O   UNL     1      20.702 -19.682  -1.527 -1.45 -0.00    +0.000 OA
DOCKED: ATOM     16  H   UNL     1      21.392 -18.876   1.476 -0.29 -0.00    +0.000 HD
DOCKED: BRANCH  14  17
DOCKED: ATOM     17  C   UNL     1      19.638 -19.969   1.170 -0.66 -0.00    +0.000 A 
DOCKED: ATOM     18  C   UNL     1      19.328 -20.115   2.529 -0.44 -0.00    +0.000 A 
DOCKED: ATOM     19  C   UNL     1      18.135 -20.729   2.914 -0.52 -0.00    +0.000 A 
DOCKED: ATOM     20  C   UNL     1      17.265 -21.208   1.934 -0.49 -0.00    +0.000 A 
DOCKED: ATOM     21  N   UNL     1      17.588 -21.084   0.619 -0.69 -0.00    +0.000 NA
DOCKED: ATOM     22  C   UNL     1      18.741 -20.486   0.218 -0.62 -0.00    +0.000 A 
DOCKED: ENDBRANCH  14  17
DOCKED: ENDBRANCH  12  13
DOCKED: ENDBRANCH   1  12
DOCKED: TORSDOF 9
DOCKED: TER
DOCKED: ENDMDL
________________________________________________________________________________


	BEGINNING GENETIC ALGORITHM DOCKING 99 of 100
Run: 99 Seed: 1473743869 297473014 [ Run 99 of 100 GA/GALS ]
Beginning LAMARCKIAN GENETIC ALGORITHM (LGA), with a maximum of 2500000 energy evaluations.

Final-Value: -13.476


	FINAL GENETIC ALGORITHM DOCKED STATE
	_______________________________________________


Detailed state:  trans 27.263 -17.729 1.512 quatxyzw 0.012738 -0.273443 0.920928 0.277414 center -0.121 -0.193 0.463 ntor 9 18.6391 -9.2323 -3.1778 120.4293 -32.4730 -109.1461 -54.0326 7.2859 -41.0445
State:	 27.263 -17.729   1.512   0.013 -0.285  0.959 147.788     18.64   -9.23   -3.18  120.43  -32.47 -109.15  -54.03    7.29  -41.04

DOCKED: MODEL       99
DOCKED: USER    Run = 99
DOCKED: USER    DPF = ligand_dock.biased.dpf
DOCKED: USER  
DOCKED: USER    Estimated Free Energy of Binding    =   -9.41 kcal/mol  [=(1)+(2)+(3)-(4)]
DOCKED: USER    Estimated Inhibition Constant, Ki   =  126.65 nM (nanomolar)  [Temperature = 298.15 K]
DOCKED: USER    
DOCKED: USER    (1) Final Intermolecular Energy     =  -12.09 kcal/mol
DOCKED: USER        vdW + Hbond + desolv Energy     =  -12.09 kcal/mol
DOCKED: USER        Electrostatic Energy            =   +0.00 kcal/mol
DOCKED: USER    (2) Final Total Internal Energy     =   -1.38 kcal/mol
DOCKED: USER    (3) Torsional Free Energy           =   +2.68 kcal/mol
DOCKED: USER    (4) Unbound System's Energy  [=(2)] =   -1.38 kcal/mol
DOCKED: USER    
DOCKED: USER    
DOCKED: USER    NEWDPF move ligand.pdbqt
DOCKED: USER    NEWDPF about -0.121000 -0.193000 0.463000
DOCKED: USER    NEWDPF tran0 27.263225 -17.728826 1.512258
DOCKED: USER    NEWDPF quaternion0 0.012738 -0.273443 0.920928 0.277414
DOCKED: USER    NEWDPF axisangle0 0.013258 -0.284614 0.958551 147.788154
DOCKED: USER    NEWDPF quat0 0.013258 -0.284614 0.958551 147.788154
DOCKED: USER    NEWDPF dihe0 18.64 -9.23 -3.18 120.43 -32.47 -109.15 -54.03 7.29 -41.04 
DOCKED: USER  keepresnum = 1 
DOCKED: USER  
DOCKED: REMARK  Name = 
DOCKED: REMARK  9 active torsions:
DOCKED: REMARK  status: ('A' for Active; 'I' for Inactive)
DOCKED: REMARK    1  A    between atoms: C_2  and  C_5
DOCKED: REMARK    2  A    between atoms: N_3  and  O_4
DOCKED: REMARK    3  A    between atoms: C_5  and  C_6
DOCKED: REMARK    4  A    between atoms: C_6  and  C_7
DOCKED: REMARK    5  A    between atoms: C_7  and  C_8
DOCKED: REMARK    6  A    between atoms: C_8  and  C_9
DOCKED: REMARK    7  A    between atoms: C_9  and  C_10
DOCKED: REMARK    8  A    between atoms: C_10  and  C_11
DOCKED: REMARK    9  A    between atoms: N_12  and  C_13
DOCKED: REMARK                            x       y       z     vdW  Elec       q    Type
DOCKED: REMARK                         _______ _______ _______ _____ _____    ______ ____
DOCKED: USER                              x       y       z     vdW  Elec       q    Type
DOCKED: USER                           _______ _______ _______ _____ _____    ______ ____
DOCKED: ROOT
DOCKED: ATOM      1  C   UNL     1      25.866 -16.063  -0.852 -0.48 -0.00    +0.000 C 
DOCKED: ENDROOT
DOCKED: BRANCH   1   2
DOCKED: ATOM      2  C   UNL     1      26.217 -17.558  -0.797 -0.60 -0.00    +0.000 C 
DOCKED: BRANCH   2   3
DOCKED: ATOM      3  C   UNL     1      25.570 -18.231   0.422 -0.50 -0.00    +0.000 C 
DOCKED: BRANCH   3   4
DOCKED: ATOM      4  C   UNL     1      24.032 -18.235   0.352 -0.52 -0.00    +0.000 C 
DOCKED: BRANCH   4   5
DOCKED: ATOM      5  C   UNL     1      23.461 -18.364  -1.070 -0.81 -0.00    +0.000 C 
DOCKED: BRANCH   5   7
DOCKED: ATOM      6  O   UNL     1      21.369 -17.250  -0.762 -1.61 -0.00    +0.000 OA
DOCKED: ATOM      7  C   UNL     1      21.960 -18.316  -1.082 -0.76 -0.00    +0.000 C 
DOCKED: ATOM      8  N   UNL     1      21.200 -19.476  -1.430 -0.75 -0.00    +0.000 N 
DOCKED: ATOM      9  H   UNL     1      21.665 -20.305  -1.687 -0.39 -0.00    +0.000 HD
DOCKED: BRANCH   8  10
DOCKED: ATOM     10  O   UNL     1      19.846 -19.444  -1.412 -1.56 -0.00    +0.000 OA
DOCKED: ATOM     11  H   UNL     1      19.544 -18.523  -1.435 -0.28 -0.00    +0.000 HD
DOCKED: ENDBRANCH   8  10
DOCKED: ENDBRANCH   5   7
DOCKED: ENDBRANCH   4   5
DOCKED: ENDBRANCH   3   4
DOCKED: ENDBRANCH   2   3
DOCKED: ENDBRANCH   1   2
DOCKED: BRANCH   1  12
DOCKED: ATOM     12  C   UNL     1      27.117 -15.176  -0.916 -0.32 -0.00    +0.000 C 
DOCKED: BRANCH  12  13
DOCKED: ATOM     13  C   UNL     1      27.298 -14.393   0.352 -0.29 -0.00    +0.000 C 
DOCKED: ATOM     14  N   UNL     1      28.252 -14.826   1.335 -0.24 -0.00    +0.000 N 
DOCKED: ATOM     15  O   UNL     1      26.601 -13.360   0.547 -0.34 -0.00    +0.000 OA
DOCKED: ATOM     16  H   UNL     1      28.978 -15.421   1.042 -0.67 -0.00    +0.000 HD
DOCKED: BRANCH  14  17
DOCKED: ATOM     17  C   UNL     1      28.211 -14.444   2.721 -0.25 -0.00    +0.000 A 
DOCKED: ATOM     18  C   UNL     1      29.384 -14.488   3.486 -0.26 -0.00    +0.000 A 
DOCKED: ATOM     19  C   UNL     1      29.351 -14.152   4.841 -0.37 -0.00    +0.000 A 
DOCKED: ATOM     20  C   UNL     1      28.138 -13.786   5.425 -0.42 -0.00    +0.000 A 
DOCKED: ATOM     21  N   UNL     1      27.002 -13.770   4.680 -0.51 -0.00    +0.000 NA
DOCKED: ATOM     22  C   UNL     1      27.007 -14.090   3.358 -0.15 -0.00    +0.000 A 
DOCKED: ENDBRANCH  14  17
DOCKED: ENDBRANCH  12  13
DOCKED: ENDBRANCH   1  12
DOCKED: TORSDOF 9
DOCKED: TER
DOCKED: ENDMDL
________________________________________________________________________________


	BEGINNING GENETIC ALGORITHM DOCKING 100 of 100
Run: 100 Seed: 1939264996 1415685079 [ Run 100 of 100 GA/GALS ]
Beginning LAMARCKIAN GENETIC ALGORITHM (LGA), with a maximum of 2500000 energy evaluations.

Final-Value: -13.051


	FINAL GENETIC ALGORITHM DOCKED STATE
	_______________________________________________


Detailed state:  trans 23.552 -19.246 -1.327 quatxyzw -0.312256 0.557913 -0.431632 0.636337 center -0.121 -0.193 0.463 ntor 9 -0.2703 -135.5493 94.1688 133.9539 -124.8155 63.4899 -70.7012 85.3573 -170.4725
State:	 23.552 -19.246  -1.327  -0.405  0.723 -0.560 100.962     -0.27 -135.55   94.17  133.95 -124.82   63.49  -70.70   85.36 -170.47

DOCKED: MODEL      100
DOCKED: USER    Run = 100
DOCKED: USER    DPF = ligand_dock.biased.dpf
DOCKED: USER  
DOCKED: USER    Estimated Free Energy of Binding    =   -9.15 kcal/mol  [=(1)+(2)+(3)-(4)]
DOCKED: USER    Estimated Inhibition Constant, Ki   =  197.28 nM (nanomolar)  [Temperature = 298.15 K]
DOCKED: USER    
DOCKED: USER    (1) Final Intermolecular Energy     =  -11.83 kcal/mol
DOCKED: USER        vdW + Hbond + desolv Energy     =  -11.83 kcal/mol
DOCKED: USER        Electrostatic Energy            =   +0.00 kcal/mol
DOCKED: USER    (2) Final Total Internal Energy     =   -1.22 kcal/mol
DOCKED: USER    (3) Torsional Free Energy           =   +2.68 kcal/mol
DOCKED: USER    (4) Unbound System's Energy  [=(2)] =   -1.22 kcal/mol
DOCKED: USER    
DOCKED: USER    
DOCKED: USER    NEWDPF move ligand.pdbqt
DOCKED: USER    NEWDPF about -0.121000 -0.193000 0.463000
DOCKED: USER    NEWDPF tran0 23.552265 -19.245924 -1.327161
DOCKED: USER    NEWDPF quaternion0 -0.312256 0.557913 -0.431632 0.636337
DOCKED: USER    NEWDPF axisangle0 -0.404785 0.723236 -0.559535 100.961633
DOCKED: USER    NEWDPF quat0 -0.404785 0.723236 -0.559535 100.961633
DOCKED: USER    NEWDPF dihe0 -0.27 -135.55 94.17 133.95 -124.82 63.49 -70.70 85.36 -170.47 
DOCKED: USER  keepresnum = 1 
DOCKED: USER  
DOCKED: REMARK  Name = 
DOCKED: REMARK  9 active torsions:
DOCKED: REMARK  status: ('A' for Active; 'I' for Inactive)
DOCKED: REMARK    1  A    between atoms: C_2  and  C_5
DOCKED: REMARK    2  A    between atoms: N_3  and  O_4
DOCKED: REMARK    3  A    between atoms: C_5  and  C_6
DOCKED: REMARK    4  A    between atoms: C_6  and  C_7
DOCKED: REMARK    5  A    between atoms: C_7  and  C_8
DOCKED: REMARK    6  A    between atoms: C_8  and  C_9
DOCKED: REMARK    7  A    between atoms: C_9  and  C_10
DOCKED: REMARK    8  A    between atoms: C_10  and  C_11
DOCKED: REMARK    9  A    between atoms: N_12  and  C_13
DOCKED: REMARK                            x       y       z     vdW  Elec       q    Type
DOCKED: REMARK                         _______ _______ _______ _____ _____    ______ ____
DOCKED: USER                              x       y       z     vdW  Elec       q    Type
DOCKED: USER                           _______ _______ _______ _____ _____    ______ ____
DOCKED: ROOT
DOCKED: ATOM      1  C   UNL     1      25.503 -16.696  -1.225 -0.59 -0.00    +0.000 C 
DOCKED: ENDROOT
DOCKED: BRANCH   1   2
DOCKED: ATOM      2  C   UNL     1      24.062 -16.835  -0.709 -0.60 -0.00    +0.000 C 
DOCKED: BRANCH   2   3
DOCKED: ATOM      3  C   UNL     1      23.840 -18.208  -0.058 -0.73 -0.00    +0.000 C 
DOCKED: BRANCH   3   4
DOCKED: ATOM      4  C   UNL     1      22.694 -18.999  -0.714 -0.83 -0.00    +0.000 C 
DOCKED: BRANCH   4   5
DOCKED: ATOM      5  C   UNL     1      21.330 -18.290  -0.679 -0.80 -0.00    +0.000 C 
DOCKED: BRANCH   5   7
DOCKED: ATOM      6  O   UNL     1      20.170 -19.835  -2.085 -1.86 -0.00    +0.000 OA
DOCKED: ATOM      7  C   UNL     1      20.198 -19.227  -0.981 -0.88 -0.00    +0.000 C 
DOCKED: ATOM      8  N   UNL     1      19.140 -19.416  -0.037 -0.77 -0.00    +0.000 N 
DOCKED: ATOM      9  H   UNL     1      19.169 -18.945   0.827 -0.27 -0.00    +0.000 HD
DOCKED: BRANCH   8  10
DOCKED: ATOM     10  O   UNL     1      18.102 -20.237  -0.320 -0.79 -0.00    +0.000 OA
DOCKED: ATOM     11  H   UNL     1      18.222 -20.618  -1.204 -0.35 -0.00    +0.000 HD
DOCKED: ENDBRANCH   8  10
DOCKED: ENDBRANCH   5   7
DOCKED: ENDBRANCH   4   5
DOCKED: ENDBRANCH   3   4
DOCKED: ENDBRANCH   2   3
DOCKED: ENDBRANCH   1   2
DOCKED: BRANCH   1  12
DOCKED: ATOM     12  C   UNL     1      25.577 -16.737  -2.757 -0.39 -0.00    +0.000 C 
DOCKED: BRANCH  12  13
DOCKED: ATOM     13  C   UNL     1      26.154 -15.467  -3.312 -0.52 -0.00    +0.000 C 
DOCKED: ATOM     14  N   UNL     1      26.324 -15.313  -4.730 -0.56 -0.00    +0.000 N 
DOCKED: ATOM     15  O   UNL     1      26.493 -14.545  -2.522 -0.33 -0.00    +0.000 OA
DOCKED: ATOM     16  H   UNL     1      25.785 -15.883  -5.324 -0.09 +0.00    +0.000 HD
DOCKED: BRANCH  14  17
DOCKED: ATOM     17  C   UNL     1      27.232 -14.377  -5.335 -0.29 -0.00    +0.000 A 
DOCKED: ATOM     18  C   UNL     1      27.088 -13.006  -5.077 -0.24 -0.00    +0.000 A 
DOCKED: ATOM     19  C   UNL     1      27.943 -12.085  -5.684 -0.15 -0.00    +0.000 A 
DOCKED: ATOM     20  C   UNL     1      28.930 -12.541  -6.559 -0.17 -0.00    +0.000 A 
DOCKED: ATOM     21  N   UNL     1      29.045 -13.869  -6.821 -0.30 -0.00    +0.000 NA
DOCKED: ATOM     22  C   UNL     1      28.228 -14.788  -6.240 -0.33 -0.00    +0.000 A 
DOCKED: ENDBRANCH  14  17
DOCKED: ENDBRANCH  12  13
DOCKED: ENDBRANCH   1  12
DOCKED: TORSDOF 9
DOCKED: TER
DOCKED: ENDMDL
________________________________________________________________________________

DPF>                           # do this many hybrid GA-LS runs

DPF> analysis                             # perform a ranked cluster analysis


		CLUSTER ANALYSIS OF CONFORMATIONS
		_________________________________

Number of conformations = 100

RMSD cluster analysis will be performed using the ligand atoms only (22 / 22 total atoms).

Outputting structurally similar clusters, ranked in order of increasing energy.


________________________________________________________________________________

Number of distinct conformational clusters found = 12,  out of 100 runs,
Using an rmsd-tolerance of 2.0 A


	CLUSTERING HISTOGRAM
	____________________

________________________________________________________________________________
     |           |     |           |     |                                    
Clus | Lowest    | Run | Mean      | Num | Histogram                          
-ter | Binding   |     | Binding   | in  |                                    
Rank | Energy    |     | Energy    | Clus|    5    10   15   20   25   30   35
_____|___________|_____|___________|_____|____:____|____:____|____:____|____:___
   1 |    -11.98 |  49 |    -10.42 |   2 |##
   2 |    -11.72 |   5 |    -10.18 |  34 |##################################
   3 |    -11.25 |  98 |    -10.62 |   4 |####
   4 |    -11.10 |  26 |     -9.93 |  37 |#####################################
   5 |    -10.53 |  58 |     -9.98 |  10 |##########
   6 |     -9.84 |  78 |     -9.51 |   6 |######
   7 |     -9.77 |  18 |     -9.77 |   1 |#
   8 |     -9.58 |  55 |     -9.58 |   1 |#
   9 |     -9.14 |  66 |     -8.85 |   2 |##
  10 |     -8.60 |  88 |     -8.60 |   1 |#
  11 |     -8.21 |  53 |     -8.21 |   1 |#
  12 |     -6.38 |  44 |     -6.38 |   1 |#
_____|___________|_____|___________|_____|______________________________________


Number of multi-member conformational clusters found = 7, out of 100 runs.

	RMSD TABLE
	__________

_____________________________________________________________________
     |      |      |           |         |                 |
Rank | Sub- | Run  | Binding   | Cluster | Reference       | Grep
     | Rank |      | Energy    | RMSD    | RMSD            | Pattern
_____|______|______|___________|_________|_________________|___________
   1      1     49      -11.98      0.00     28.13           RANKING
   1      2     96       -8.85      1.40     28.07           RANKING
   2      1      5      -11.72      0.00     29.05           RANKING
   2      2     59      -11.47      1.01     29.30           RANKING
   2      3     69      -11.25      0.95     29.14           RANKING
   2      4      7      -11.17      1.02     29.33           RANKING
   2      5     52      -11.16      0.59     29.08           RANKING
   2      6     12      -11.04      1.06     29.11           RANKING
   2      7     41      -11.00      1.29     28.90           RANKING
   2      8     75      -10.75      1.05     28.97           RANKING
   2      9     30      -10.58      0.98     29.04           RANKING
   2     10     79      -10.54      1.19     28.88           RANKING
   2     11     73      -10.53      1.24     29.30           RANKING
   2     12     16      -10.39      0.89     29.15           RANKING
   2     13     71      -10.37      1.22     28.94           RANKING
   2     14     10      -10.33      1.31     29.30           RANKING
   2     15     13      -10.22      1.48     28.74           RANKING
   2     16     50      -10.14      0.95     29.31           RANKING
   2     17     70      -10.13      1.05     29.27           RANKING
   2     18      4      -10.10      0.81     29.01           RANKING
   2     19     97       -9.96      1.23     29.24           RANKING
   2     20     25       -9.94      1.06     29.34           RANKING
   2     21     28       -9.86      1.34     28.79           RANKING
   2     22     38       -9.84      1.00     29.16           RANKING
   2     23     72       -9.77      1.62     29.61           RANKING
   2     24      2       -9.65      1.75     28.84           RANKING
   2     25     82       -9.64      1.68     28.53           RANKING
   2     26     76       -9.63      1.49     29.28           RANKING
   2     27     42       -9.59      1.88     28.88           RANKING
   2     28      6       -9.55      1.40     29.07           RANKING
   2     29     17       -9.43      1.68     28.45           RANKING
   2     30     99       -9.41      1.18     29.31           RANKING
   2     31     35       -9.36      1.90     28.34           RANKING
   2     32     39       -9.36      1.88     28.35           RANKING
   2     33     23       -9.15      1.81     28.54           RANKING
   2     34     86       -9.02      1.57     29.31           RANKING
   3      1     98      -11.25      0.00     27.68           RANKING
   3      2     56      -11.03      1.82     28.29           RANKING
   3      3     48      -10.23      1.27     27.86           RANKING
   3      4     64       -9.97      1.58     28.07           RANKING
   4      1     26      -11.10      0.00     30.24           RANKING
   4      2     29      -11.01      0.66     30.55           RANKING
   4      3     85      -10.92      0.73     30.13           RANKING
   4      4     89      -10.76      0.94     30.34           RANKING
   4      5     11      -10.64      0.60     30.42           RANKING
   4      6     46      -10.61      1.33     29.50           RANKING
   4      7     51      -10.54      1.10     29.46           RANKING
   4      8     80      -10.52      1.42     29.38           RANKING
   4      9     33      -10.39      0.89     29.90           RANKING
   4     10     19      -10.37      1.05     29.68           RANKING
   4     11     67      -10.25      1.23     29.44           RANKING
   4     12     63      -10.23      1.05     30.73           RANKING
   4     13     92      -10.16      1.38     29.34           RANKING
   4     14      8      -10.07      1.26     29.46           RANKING
   4     15     15      -10.06      0.78     30.18           RANKING
   4     16     37      -10.04      1.07     29.97           RANKING
   4     17     32      -10.03      1.81     29.32           RANKING
   4     18     57       -9.98      1.69     29.52           RANKING
   4     19     61       -9.88      1.33     30.34           RANKING
   4     20     31       -9.85      1.21     29.98           RANKING
   4     21      3       -9.80      1.41     29.66           RANKING
   4     22     81       -9.77      1.48     29.53           RANKING
   4     23     54       -9.68      1.64     30.64           RANKING
   4     24     47       -9.68      1.99     29.39           RANKING
   4     25     93       -9.67      1.46     29.79           RANKING
   4     26     60       -9.64      1.42     30.65           RANKING
   4     27     74       -9.62      1.22     30.07           RANKING
   4     28     20       -9.62      1.65     29.77           RANKING
   4     29     94       -9.57      1.53     29.61           RANKING
   4     30     40       -9.38      1.19     30.13           RANKING
   4     31     84       -9.36      1.80     30.37           RANKING
   4     32     45       -9.35      1.04     29.83           RANKING
   4     33    100       -9.15      1.91     28.96           RANKING
   4     34     83       -8.96      1.67     30.37           RANKING
   4     35     95       -8.95      1.92     30.62           RANKING
   4     36     21       -8.95      1.32     29.39           RANKING
   4     37     36       -8.94      1.73     29.52           RANKING
   5      1     58      -10.53      0.00     27.82           RANKING
   5      2      9      -10.52      0.84     27.84           RANKING
   5      3      1      -10.31      1.77     28.71           RANKING
   5      4     62      -10.21      1.42     28.54           RANKING
   5      5     34      -10.05      1.49     28.05           RANKING
   5      6     68       -9.97      1.65     28.56           RANKING
   5      7     22       -9.79      1.73     28.56           RANKING
   5      8     24       -9.78      1.20     27.96           RANKING
   5      9     43       -9.34      1.75     28.51           RANKING
   5     10     65       -9.33      1.77     28.30           RANKING
   6      1     78       -9.84      0.00     29.01           RANKING
   6      2     27       -9.51      1.83     28.55           RANKING
   6      3     14       -9.51      1.55     29.49           RANKING
   6      4     91       -9.51      1.81     28.75           RANKING
   6      5     87       -9.43      1.81     28.84           RANKING
   6      6     77       -9.28      1.72     28.59           RANKING
   7      1     18       -9.77      0.00     27.84           RANKING
   8      1     55       -9.58      0.00     28.78           RANKING
   9      1     66       -9.14      0.00     28.94           RANKING
   9      2     90       -8.57      1.16     28.96           RANKING
  10      1     88       -8.60      0.00     28.75           RANKING
  11      1     53       -8.21      0.00     30.38           RANKING
  12      1     44       -6.38      0.00     29.26           RANKING
_______________________________________________________________________



	INFORMATION ENTROPY ANALYSIS FOR THIS CLUSTERING
	________________________________________________


Information entropy for this clustering = 0.36  (rmstol = 2.00 Angstrom)

_______________________________________________________________________


	STATISTICAL MECHANICAL ANALYSIS
	_______________________________


Partition function, Q =   101.69            at Temperature, T = 298.15 K
Free energy,        A ~ -2738.42 kcal/mol   at Temperature, T = 298.15 K
Internal energy,    U =    -9.94 kcal/mol   at Temperature, T = 298.15 K
Entropy,            S =     9.15 kcal/mol/K at Temperature, T = 298.15 K

_______________________________________________________________________


	LOWEST ENERGY DOCKED CONFORMATION from EACH CLUSTER
	___________________________________________________



Keeping original residue number (specified in the input PDBQ file) for outputting.

MODEL       49
USER    Run = 49
USER    Cluster Rank = 1
USER    Number of conformations in this cluster = 2
USER  
USER    RMSD from reference structure       = 28.131 A
USER  
USER    Estimated Free Energy of Binding    =  -11.98 kcal/mol  [=(1)+(2)+(3)-(4)]
USER    Estimated Inhibition Constant, Ki   =    1.65 nM (nanomolar)  [Temperature = 298.15 K]
USER    
USER    (1) Final Intermolecular Energy     =  -14.67 kcal/mol
USER        vdW + Hbond + desolv Energy     =  -14.67 kcal/mol
USER        Electrostatic Energy            =   +0.00 kcal/mol
USER    (2) Final Total Internal Energy     =   -0.92 kcal/mol
USER    (3) Torsional Free Energy           =   +2.68 kcal/mol
USER    (4) Unbound System's Energy  [=(2)] =   -0.92 kcal/mol
USER    
USER    
USER  
USER    DPF = ligand_dock.biased.dpf
USER    NEWDPF move	ligand.pdbqt
USER    NEWDPF about	-0.121000 -0.193000 0.463000
USER    NEWDPF tran0	24.655924 -15.420175 -0.049468
USER    NEWDPF axisangle0	-0.837121 -0.170082 -0.519905 -79.528128
USER    NEWDPF quaternion0	-0.535446 -0.108789 -0.332545 -0.768685
USER    NEWDPF dihe0	-166.98 -129.05 14.27 -177.91 -3.82 -49.62 -178.91 -130.10 -75.42 
USER  
USER                              x       y       z    vdW   Elec        q     RMS 
ATOM      1  C   UNL     1      24.131 -18.561  -0.472 -0.75 -0.00    +0.000    28.131
ATOM      2  C   UNL     1      25.394 -17.740  -0.777 -0.68 -0.00    +0.000    28.131
ATOM      3  C   UNL     1      25.153 -16.771  -1.944 -0.62 -0.00    +0.000    28.131
ATOM      4  C   UNL     1      25.460 -15.308  -1.576 -0.38 -0.00    +0.000    28.131
ATOM      5  C   UNL     1      26.925 -15.044  -1.190 -0.33 -0.00    +0.000    28.131
ATOM      6  O   UNL     1      26.380 -13.613   0.645 -0.38 -0.00    +0.000    28.131
ATOM      7  C   UNL     1      27.060 -14.592   0.235 -0.31 -0.00    +0.000    28.131
ATOM      8  N   UNL     1      27.972 -15.248   1.121 -0.21 -0.00    +0.000    28.131
ATOM      9  H   UNL     1      28.496 -16.016   0.799 -0.62 -0.00    +0.000    28.131
ATOM     10  O   UNL     1      28.119 -14.823   2.398 -0.32 -0.00    +0.000    28.131
ATOM     11  H   UNL     1      28.906 -15.233   2.787 -1.95 -0.00    +0.000    28.131
ATOM     12  C   UNL     1      22.968 -18.203  -1.407 -0.70 -0.00    +0.000    28.131
ATOM     13  C   UNL     1      21.647 -18.294  -0.698 -0.85 -0.00    +0.000    28.131
ATOM     14  N   UNL     1      21.428 -19.319   0.285 -0.61 -0.00    +0.000    28.131
ATOM     15  O   UNL     1      20.736 -17.470  -0.980 -2.05 -0.00    +0.000    28.131
ATOM     16  H   UNL     1      22.216 -19.733   0.703 -0.43 -0.00    +0.000    28.131
ATOM     17  C   UNL     1      20.127 -19.777   0.694 -0.67 -0.00    +0.000    28.131
ATOM     18  C   UNL     1      19.883 -20.045   2.048 -0.53 -0.00    +0.000    28.131
ATOM     19  C   UNL     1      18.635 -20.520   2.454 -0.53 -0.00    +0.000    28.131
ATOM     20  C   UNL     1      17.643 -20.740   1.499 -0.48 -0.00    +0.000    28.131
ATOM     21  N   UNL     1      17.898 -20.500   0.186 -0.60 -0.00    +0.000    28.131
ATOM     22  C   UNL     1      19.103 -20.033  -0.236 -0.67 -0.00    +0.000    28.131
TER
ENDMDL
MODEL        5
USER    Run = 5
USER    Cluster Rank = 2
USER    Number of conformations in this cluster = 34
USER  
USER    RMSD from reference structure       = 29.053 A
USER  
USER    Estimated Free Energy of Binding    =  -11.72 kcal/mol  [=(1)+(2)+(3)-(4)]
USER    Estimated Inhibition Constant, Ki   =    2.57 nM (nanomolar)  [Temperature = 298.15 K]
USER    
USER    (1) Final Intermolecular Energy     =  -14.40 kcal/mol
USER        vdW + Hbond + desolv Energy     =  -14.40 kcal/mol
USER        Electrostatic Energy            =   +0.00 kcal/mol
USER    (2) Final Total Internal Energy     =   -1.17 kcal/mol
USER    (3) Torsional Free Energy           =   +2.68 kcal/mol
USER    (4) Unbound System's Energy  [=(2)] =   -1.17 kcal/mol
USER    
USER    
USER  
USER    DPF = ligand_dock.biased.dpf
USER    NEWDPF move	ligand.pdbqt
USER    NEWDPF about	-0.121000 -0.193000 0.463000
USER    NEWDPF tran0	24.672308 -17.814872 1.262786
USER    NEWDPF axisangle0	-0.483300 -0.171126 0.858567 170.482799
USER    NEWDPF quaternion0	-0.481634 -0.170536 0.855607 0.082958
USER    NEWDPF dihe0	-9.73 -126.75 -77.97 164.64 -154.24 95.90 -8.56 82.50 -80.99 
USER  
USER                              x       y       z    vdW   Elec        q     RMS 
ATOM      1  C   UNL     1      26.599 -16.046  -0.601 -0.43 -0.00    +0.000    29.053
ATOM      2  C   UNL     1      26.041 -17.456  -0.847 -0.61 -0.00    +0.000    29.053
ATOM      3  C   UNL     1      24.858 -17.417  -1.826 -0.66 -0.00    +0.000    29.053
ATOM      4  C   UNL     1      23.504 -17.240  -1.116 -0.69 -0.00    +0.000    29.053
ATOM      5  C   UNL     1      22.836 -18.557  -0.685 -0.84 -0.00    +0.000    29.053
ATOM      6  O   UNL     1      20.632 -17.633  -0.724 -2.19 +0.00    +0.000    29.053
ATOM      7  C   UNL     1      21.379 -18.596  -1.046 -0.80 -0.00    +0.000    29.053
ATOM      8  N   UNL     1      20.832 -19.726  -1.731 -0.75 -0.00    +0.000    29.053
ATOM      9  H   UNL     1      21.420 -20.473  -1.987 -0.45 -0.00    +0.000    29.053
ATOM     10  O   UNL     1      19.512 -19.777  -2.030 -1.57 -0.00    +0.000    29.053
ATOM     11  H   UNL     1      19.050 -19.051  -1.582 -0.56 -0.00    +0.000    29.053
ATOM     12  C   UNL     1      27.621 -16.018   0.544 -0.09 -0.00    +0.000    29.053
ATOM     13  C   UNL     1      27.636 -14.684   1.233 -0.26 -0.00    +0.000    29.053
ATOM     14  N   UNL     1      28.470 -14.478   2.384 -0.27 -0.00    +0.000    29.053
ATOM     15  O   UNL     1      26.907 -13.754   0.795 -0.34 -0.00    +0.000    29.053
ATOM     16  H   UNL     1      29.234 -15.083   2.514 -1.87 -0.00    +0.000    29.053
ATOM     17  C   UNL     1      28.255 -13.443   3.359 -0.31 -0.00    +0.000    29.053
ATOM     18  C   UNL     1      28.204 -13.775   4.721 -0.47 -0.00    +0.000    29.053
ATOM     19  C   UNL     1      27.964 -12.784   5.675 -0.41 -0.00    +0.000    29.053
ATOM     20  C   UNL     1      27.761 -11.469   5.258 -0.36 +0.00    +0.000    29.053
ATOM     21  N   UNL     1      27.789 -11.162   3.934 -0.28 +0.00    +0.000    29.053
ATOM     22  C   UNL     1      28.024 -12.107   2.985 -0.22 -0.00    +0.000    29.053
TER
ENDMDL
MODEL       98
USER    Run = 98
USER    Cluster Rank = 3
USER    Number of conformations in this cluster = 4
USER  
USER    RMSD from reference structure       = 27.680 A
USER  
USER    Estimated Free Energy of Binding    =  -11.25 kcal/mol  [=(1)+(2)+(3)-(4)]
USER    Estimated Inhibition Constant, Ki   =    5.70 nM (nanomolar)  [Temperature = 298.15 K]
USER    
USER    (1) Final Intermolecular Energy     =  -13.93 kcal/mol
USER        vdW + Hbond + desolv Energy     =  -13.93 kcal/mol
USER        Electrostatic Energy            =   +0.00 kcal/mol
USER    (2) Final Total Internal Energy     =   -0.74 kcal/mol
USER    (3) Torsional Free Energy           =   +2.68 kcal/mol
USER    (4) Unbound System's Energy  [=(2)] =   -0.74 kcal/mol
USER    
USER    
USER  
USER    DPF = ligand_dock.biased.dpf
USER    NEWDPF move	ligand.pdbqt
USER    NEWDPF about	-0.121000 -0.193000 0.463000
USER    NEWDPF tran0	22.690242 -17.165817 -3.615504
USER    NEWDPF axisangle0	0.802425 0.596728 -0.005476 148.915102
USER    NEWDPF quaternion0	0.773082 0.574907 -0.005276 0.267952
USER    NEWDPF dihe0	108.11 105.86 -40.73 44.46 -147.96 44.67 79.37 -164.17 -65.43 
USER  
USER                              x       y       z    vdW   Elec        q     RMS 
ATOM      1  C   UNL     1      23.294 -17.741  -0.513 -0.78 -0.00    +0.000    27.680
ATOM      2  C   UNL     1      24.238 -17.207  -1.602 -0.65 -0.00    +0.000    27.680
ATOM      3  C   UNL     1      25.689 -17.169  -1.101 -0.61 -0.00    +0.000    27.680
ATOM      4  C   UNL     1      26.455 -15.927  -1.589 -0.44 -0.00    +0.000    27.680
ATOM      5  C   UNL     1      27.019 -16.047  -3.015 -0.30 -0.00    +0.000    27.680
ATOM      6  O   UNL     1      26.555 -15.256  -5.222 -1.05 +0.00    +0.000    27.680
ATOM      7  C   UNL     1      26.236 -15.232  -4.003 -0.56 -0.00    +0.000    27.680
ATOM      8  N   UNL     1      25.149 -14.411  -3.566 -0.53 -0.00    +0.000    27.680
ATOM      9  H   UNL     1      24.899 -14.400  -2.614 -0.03 -0.00    +0.000    27.680
ATOM     10  O   UNL     1      24.461 -13.651  -4.451 -1.02 -0.00    +0.000    27.680
ATOM     11  H   UNL     1      23.580 -14.031  -4.588 -0.59 -0.00    +0.000    27.680
ATOM     12  C   UNL     1      22.909 -19.208  -0.749 -0.78 -0.00    +0.000    27.680
ATOM     13  C   UNL     1      21.439 -19.430  -0.536 -0.79 -0.00    +0.000    27.680
ATOM     14  N   UNL     1      20.886 -19.365   0.788 -0.63 -0.00    +0.000    27.680
ATOM     15  O   UNL     1      20.702 -19.682  -1.527 -1.45 -0.00    +0.000    27.680
ATOM     16  H   UNL     1      21.392 -18.876   1.476 -0.29 -0.00    +0.000    27.680
ATOM     17  C   UNL     1      19.638 -19.969   1.170 -0.66 -0.00    +0.000    27.680
ATOM     18  C   UNL     1      19.328 -20.115   2.529 -0.44 -0.00    +0.000    27.680
ATOM     19  C   UNL     1      18.135 -20.729   2.914 -0.52 -0.00    +0.000    27.680
ATOM     20  C   UNL     1      17.265 -21.208   1.934 -0.49 -0.00    +0.000    27.680
ATOM     21  N   UNL     1      17.588 -21.084   0.619 -0.69 -0.00    +0.000    27.680
ATOM     22  C   UNL     1      18.741 -20.486   0.218 -0.62 -0.00    +0.000    27.680
TER
ENDMDL
MODEL       26
USER    Run = 26
USER    Cluster Rank = 4
USER    Number of conformations in this cluster = 37
USER  
USER    RMSD from reference structure       = 30.241 A
USER  
USER    Estimated Free Energy of Binding    =  -11.10 kcal/mol  [=(1)+(2)+(3)-(4)]
USER    Estimated Inhibition Constant, Ki   =    7.36 nM (nanomolar)  [Temperature = 298.15 K]
USER    
USER    (1) Final Intermolecular Energy     =  -13.78 kcal/mol
USER        vdW + Hbond + desolv Energy     =  -13.78 kcal/mol
USER        Electrostatic Energy            =   +0.00 kcal/mol
USER    (2) Final Total Internal Energy     =   -0.83 kcal/mol
USER    (3) Torsional Free Energy           =   +2.68 kcal/mol
USER    (4) Unbound System's Energy  [=(2)] =   -0.83 kcal/mol
USER    
USER    
USER  
USER    DPF = ligand_dock.biased.dpf
USER    NEWDPF move	ligand.pdbqt
USER    NEWDPF about	-0.121000 -0.193000 0.463000
USER    NEWDPF tran0	25.563086 -15.266993 0.275421
USER    NEWDPF axisangle0	-0.017795 -0.193239 -0.980990 -108.968417
USER    NEWDPF quaternion0	-0.014484 -0.157288 -0.798482 -0.580927
USER    NEWDPF dihe0	-124.70 -142.19 -144.79 151.09 96.22 161.96 -27.31 166.19 166.83 
USER  
USER                              x       y       z    vdW   Elec        q     RMS 
ATOM      1  C   UNL     1      25.241 -16.486  -2.679 -0.49 -0.00    +0.000    30.241
ATOM      2  C   UNL     1      26.062 -17.020  -1.495 -0.55 -0.00    +0.000    30.241
ATOM      3  C   UNL     1      25.181 -17.836  -0.537 -0.70 -0.00    +0.000    30.241
ATOM      4  C   UNL     1      23.693 -17.455  -0.626 -0.73 -0.00    +0.000    30.241
ATOM      5  C   UNL     1      22.732 -18.499  -0.034 -0.78 -0.00    +0.000    30.241
ATOM      6  O   UNL     1      20.650 -17.543  -0.713 -2.12 +0.00    +0.000    30.241
ATOM      7  C   UNL     1      21.421 -18.539  -0.763 -0.85 -0.00    +0.000    30.241
ATOM      8  N   UNL     1      21.031 -19.706  -1.492 -0.74 -0.00    +0.000    30.241
ATOM      9  H   UNL     1      21.639 -20.480  -1.534 -0.31 -0.00    +0.000    30.241
ATOM     10  O   UNL     1      19.835 -19.756  -2.125 -1.84 -0.00    +0.000    30.241
ATOM     11  H   UNL     1      19.340 -20.532  -1.820 -0.58 -0.00    +0.000    30.241
ATOM     12  C   UNL     1      25.816 -15.179  -3.241 -0.54 -0.00    +0.000    30.241
ATOM     13  C   UNL     1      26.696 -15.436  -4.431 -0.49 -0.00    +0.000    30.241
ATOM     14  N   UNL     1      28.124 -15.456  -4.279 -0.32 -0.00    +0.000    30.241
ATOM     15  O   UNL     1      26.169 -15.624  -5.560 -1.18 +0.00    +0.000    30.241
ATOM     16  H   UNL     1      28.490 -15.618  -3.380 -0.00 -0.00    +0.000    30.241
ATOM     17  C   UNL     1      29.052 -15.254  -5.359 -0.30 -0.00    +0.000    30.241
ATOM     18  C   UNL     1      29.049 -14.038  -6.056 -0.26 -0.00    +0.000    30.241
ATOM     19  C   UNL     1      29.922 -13.841  -7.127 -0.23 -0.00    +0.000    30.241
ATOM     20  C   UNL     1      30.784 -14.871  -7.504 -0.22 -0.00    +0.000    30.241
ATOM     21  N   UNL     1      30.763 -16.055  -6.837 -0.27 -0.00    +0.000    30.241
ATOM     22  C   UNL     1      29.924 -16.271  -5.788 -0.30 -0.00    +0.000    30.241
TER
ENDMDL
MODEL       58
USER    Run = 58
USER    Cluster Rank = 5
USER    Number of conformations in this cluster = 10
USER  
USER    RMSD from reference structure       = 27.820 A
USER  
USER    Estimated Free Energy of Binding    =  -10.53 kcal/mol  [=(1)+(2)+(3)-(4)]
USER    Estimated Inhibition Constant, Ki   =   18.99 nM (nanomolar)  [Temperature = 298.15 K]
USER    
USER    (1) Final Intermolecular Energy     =  -13.22 kcal/mol
USER        vdW + Hbond + desolv Energy     =  -13.22 kcal/mol
USER        Electrostatic Energy            =   +0.00 kcal/mol
USER    (2) Final Total Internal Energy     =   -0.79 kcal/mol
USER    (3) Torsional Free Energy           =   +2.68 kcal/mol
USER    (4) Unbound System's Energy  [=(2)] =   -0.79 kcal/mol
USER    
USER    
USER  
USER    DPF = ligand_dock.biased.dpf
USER    NEWDPF move	ligand.pdbqt
USER    NEWDPF about	-0.121000 -0.193000 0.463000
USER    NEWDPF tran0	26.661692 -18.536848 -2.573282
USER    NEWDPF axisangle0	-0.532752 0.428208 -0.729941 148.874233
USER    NEWDPF quaternion0	-0.513219 0.412508 -0.703179 0.268296
USER    NEWDPF dihe0	-133.42 -178.13 -79.35 23.71 165.33 14.28 10.35 19.48 -160.26 
USER  
USER                              x       y       z    vdW   Elec        q     RMS 
ATOM      1  C   UNL     1      25.441 -15.590  -2.196 -0.51 -0.00    +0.000    27.820
ATOM      2  C   UNL     1      24.759 -16.953  -2.002 -0.61 -0.00    +0.000    27.820
ATOM      3  C   UNL     1      24.241 -17.111  -0.565 -0.61 -0.00    +0.000    27.820
ATOM      4  C   UNL     1      23.733 -18.533  -0.268 -0.75 -0.00    +0.000    27.820
ATOM      5  C   UNL     1      22.323 -18.590   0.343 -0.62 -0.00    +0.000    27.820
ATOM      6  O   UNL     1      20.624 -17.494  -0.931 -2.10 -0.00    +0.000    27.820
ATOM      7  C   UNL     1      21.251 -18.565  -0.708 -0.85 -0.00    +0.000    27.820
ATOM      8  N   UNL     1      20.922 -19.750  -1.437 -0.75 -0.00    +0.000    27.820
ATOM      9  H   UNL     1      21.418 -20.582  -1.264 -0.14 -0.00    +0.000    27.820
ATOM     10  O   UNL     1      19.934 -19.738  -2.363 -1.77 -0.00    +0.000    27.820
ATOM     11  H   UNL     1      19.360 -20.509  -2.234 -0.53 -0.00    +0.000    27.820
ATOM     12  C   UNL     1      25.763 -15.308  -3.670 -0.58 -0.00    +0.000    27.820
ATOM     13  C   UNL     1      25.265 -13.955  -4.090 -0.50 -0.00    +0.000    27.820
ATOM     14  N   UNL     1      26.199 -12.920  -4.437 -0.33 -0.00    +0.000    27.820
ATOM     15  O   UNL     1      24.024 -13.737  -4.126 -1.04 -0.00    +0.000    27.820
ATOM     16  H   UNL     1      27.108 -13.188  -4.700 -0.01 -0.00    +0.000    27.820
ATOM     17  C   UNL     1      25.887 -11.516  -4.425 -0.28 -0.00    +0.000    27.820
ATOM     18  C   UNL     1      26.705 -10.632  -3.707 -0.14 -0.00    +0.000    27.820
ATOM     19  C   UNL     1      26.395  -9.272  -3.661 -0.14 -0.00    +0.000    27.820
ATOM     20  C   UNL     1      25.258  -8.807  -4.321 -0.22 -0.00    +0.000    27.820
ATOM     21  N   UNL     1      24.458  -9.676  -4.994 -0.36 -0.00    +0.000    27.820
ATOM     22  C   UNL     1      24.740 -11.005  -5.058 -0.38 -0.00    +0.000    27.820
TER
ENDMDL
MODEL       78
USER    Run = 78
USER    Cluster Rank = 6
USER    Number of conformations in this cluster = 6
USER  
USER    RMSD from reference structure       = 29.012 A
USER  
USER    Estimated Free Energy of Binding    =   -9.84 kcal/mol  [=(1)+(2)+(3)-(4)]
USER    Estimated Inhibition Constant, Ki   =   61.70 nM (nanomolar)  [Temperature = 298.15 K]
USER    
USER    (1) Final Intermolecular Energy     =  -12.52 kcal/mol
USER        vdW + Hbond + desolv Energy     =  -12.52 kcal/mol
USER        Electrostatic Energy            =   +0.00 kcal/mol
USER    (2) Final Total Internal Energy     =   -1.33 kcal/mol
USER    (3) Torsional Free Energy           =   +2.68 kcal/mol
USER    (4) Unbound System's Energy  [=(2)] =   -1.33 kcal/mol
USER    
USER    
USER  
USER    DPF = ligand_dock.biased.dpf
USER    NEWDPF move	ligand.pdbqt
USER    NEWDPF about	-0.121000 -0.193000 0.463000
USER    NEWDPF tran0	24.549193 -19.134970 -1.764936
USER    NEWDPF axisangle0	-0.296043 0.880236 -0.370869 114.344016
USER    NEWDPF quaternion0	-0.248765 0.739664 -0.311642 0.542119
USER    NEWDPF dihe0	0.72 118.78 101.46 54.46 3.09 -45.26 -120.70 108.16 117.62 
USER  
USER                              x       y       z    vdW   Elec        q     RMS 
ATOM      1  C   UNL     1      26.827 -17.350  -0.372 -0.54 -0.00    +0.000    29.012
ATOM      2  C   UNL     1      25.301 -17.174  -0.336 -0.54 -0.00    +0.000    29.012
ATOM      3  C   UNL     1      24.616 -18.103  -1.347 -0.68 -0.00    +0.000    29.012
ATOM      4  C   UNL     1      23.485 -18.938  -0.718 -0.80 -0.00    +0.000    29.012
ATOM      5  C   UNL     1      22.249 -18.123  -0.303 -0.83 -0.00    +0.000    29.012
ATOM      6  O   UNL     1      20.014 -17.762  -1.069 -1.85 -0.00    +0.000    29.012
ATOM      7  C   UNL     1      21.028 -18.511  -1.084 -0.76 -0.00    +0.000    29.012
ATOM      8  N   UNL     1      20.999 -19.735  -1.825 -0.68 -0.00    +0.000    29.012
ATOM      9  H   UNL     1      21.795 -20.314  -1.840 -0.45 -0.00    +0.000    29.012
ATOM     10  O   UNL     1      19.887 -20.102  -2.505 -1.69 -0.00    +0.000    29.012
ATOM     11  H   UNL     1      19.204 -19.423  -2.399 -0.47 -0.00    +0.000    29.012
ATOM     12  C   UNL     1      27.409 -17.072  -1.765 -0.34 -0.00    +0.000    29.012
ATOM     13  C   UNL     1      26.870 -15.793  -2.339 -0.39 -0.00    +0.000    29.012
ATOM     14  N   UNL     1      26.892 -15.576  -3.759 -0.41 -0.00    +0.000    29.012
ATOM     15  O   UNL     1      26.408 -14.914  -1.563 -0.35 -0.00    +0.000    29.012
ATOM     16  H   UNL     1      26.958 -16.364  -4.345 -0.01 -0.00    +0.000    29.012
ATOM     17  C   UNL     1      26.824 -14.279  -4.376 -0.38 -0.00    +0.000    29.012
ATOM     18  C   UNL     1      25.792 -13.398  -4.024 -0.38 -0.00    +0.000    29.012
ATOM     19  C   UNL     1      25.696 -12.149  -4.640 -0.29 -0.00    +0.000    29.012
ATOM     20  C   UNL     1      26.626 -11.795  -5.617 -0.19 -0.00    +0.000    29.012
ATOM     21  N   UNL     1      27.608 -12.667  -5.969 -0.22 -0.00    +0.000    29.012
ATOM     22  C   UNL     1      27.726 -13.888  -5.382 -0.29 -0.00    +0.000    29.012
TER
ENDMDL
MODEL       18
USER    Run = 18
USER    Cluster Rank = 7
USER    Number of conformations in this cluster = 1
USER  
USER    RMSD from reference structure       = 27.840 A
USER  
USER    Estimated Free Energy of Binding    =   -9.77 kcal/mol  [=(1)+(2)+(3)-(4)]
USER    Estimated Inhibition Constant, Ki   =   68.45 nM (nanomolar)  [Temperature = 298.15 K]
USER    
USER    (1) Final Intermolecular Energy     =  -12.46 kcal/mol
USER        vdW + Hbond + desolv Energy     =  -12.46 kcal/mol
USER        Electrostatic Energy            =   +0.00 kcal/mol
USER    (2) Final Total Internal Energy     =   -1.19 kcal/mol
USER    (3) Torsional Free Energy           =   +2.68 kcal/mol
USER    (4) Unbound System's Energy  [=(2)] =   -1.19 kcal/mol
USER    
USER    
USER  
USER    DPF = ligand_dock.biased.dpf
USER    NEWDPF move	ligand.pdbqt
USER    NEWDPF about	-0.121000 -0.193000 0.463000
USER    NEWDPF tran0	23.924046 -16.467813 -2.811323
USER    NEWDPF axisangle0	0.849246 0.481190 -0.217343 135.144072
USER    NEWDPF quaternion0	0.785009 0.444793 -0.200903 0.381522
USER    NEWDPF dihe0	-15.36 -140.91 -39.58 -0.82 42.35 -40.11 -40.26 161.62 -6.10 
USER  
USER                              x       y       z    vdW   Elec        q     RMS 
ATOM      1  C   UNL     1      25.910 -17.028  -0.349 -0.54 -0.00    +0.000    27.840
ATOM      2  C   UNL     1      26.247 -16.642  -1.798 -0.51 -0.00    +0.000    27.840
ATOM      3  C   UNL     1      25.844 -15.190  -2.090 -0.45 -0.00    +0.000    27.840
ATOM      4  C   UNL     1      26.944 -14.403  -2.825 -0.31 -0.00    +0.000    27.840
ATOM      5  C   UNL     1      26.630 -14.097  -4.299 -0.42 -0.00    +0.000    27.840
ATOM      6  O   UNL     1      24.275 -13.737  -4.106 -1.13 -0.00    +0.000    27.840
ATOM      7  C   UNL     1      25.391 -13.263  -4.451 -0.33 -0.00    +0.000    27.840
ATOM      8  N   UNL     1      25.466 -11.947  -5.006 -0.33 -0.00    +0.000    27.840
ATOM      9  H   UNL     1      26.340 -11.578  -5.267 -0.01 -0.00    +0.000    27.840
ATOM     10  O   UNL     1      24.345 -11.205  -5.173 -0.53 -0.00    +0.000    27.840
ATOM     11  H   UNL     1      23.565 -11.776  -5.102 -0.50 -0.00    +0.000    27.840
ATOM     12  C   UNL     1      25.325 -18.443  -0.247 -0.63 -0.00    +0.000    27.840
ATOM     13  C   UNL     1      23.893 -18.477  -0.698 -0.81 -0.00    +0.000    27.840
ATOM     14  N   UNL     1      22.836 -18.571   0.271 -0.68 -0.00    +0.000    27.840
ATOM     15  O   UNL     1      23.631 -18.432  -1.930 -0.76 -0.00    +0.000    27.840
ATOM     16  H   UNL     1      23.032 -18.296   1.195 -0.06 -0.00    +0.000    27.840
ATOM     17  C   UNL     1      21.510 -19.041  -0.027 -0.68 -0.00    +0.000    27.840
ATOM     18  C   UNL     1      20.637 -19.359   1.023 -0.41 -0.00    +0.000    27.840
ATOM     19  C   UNL     1      19.359 -19.848   0.748 -0.68 -0.00    +0.000    27.840
ATOM     20  C   UNL     1      18.967 -20.029  -0.579 -0.40 -0.00    +0.000    27.840
ATOM     21  N   UNL     1      19.830 -19.740  -1.588 -1.57 -0.00    +0.000    27.840
ATOM     22  C   UNL     1      21.079 -19.260  -1.347 -0.68 -0.00    +0.000    27.840
TER
ENDMDL
MODEL       55
USER    Run = 55
USER    Cluster Rank = 8
USER    Number of conformations in this cluster = 1
USER  
USER    RMSD from reference structure       = 28.781 A
USER  
USER    Estimated Free Energy of Binding    =   -9.58 kcal/mol  [=(1)+(2)+(3)-(4)]
USER    Estimated Inhibition Constant, Ki   =   95.81 nM (nanomolar)  [Temperature = 298.15 K]
USER    
USER    (1) Final Intermolecular Energy     =  -12.26 kcal/mol
USER        vdW + Hbond + desolv Energy     =  -12.26 kcal/mol
USER        Electrostatic Energy            =   +0.00 kcal/mol
USER    (2) Final Total Internal Energy     =   -1.10 kcal/mol
USER    (3) Torsional Free Energy           =   +2.68 kcal/mol
USER    (4) Unbound System's Energy  [=(2)] =   -1.10 kcal/mol
USER    
USER    
USER  
USER    DPF = ligand_dock.biased.dpf
USER    NEWDPF move	ligand.pdbqt
USER    NEWDPF about	-0.121000 -0.193000 0.463000
USER    NEWDPF tran0	28.695401 -14.334867 0.518607
USER    NEWDPF axisangle0	-0.105396 -0.761405 -0.639652 97.805977
USER    NEWDPF quaternion0	-0.079426 -0.573793 -0.482040 0.657336
USER    NEWDPF dihe0	33.18 174.17 148.86 -150.26 162.78 18.82 -149.20 -141.59 -167.61 
USER  
USER                              x       y       z    vdW   Elec        q     RMS 
ATOM      1  C   UNL     1      26.414 -15.610  -1.349 -0.42 -0.00    +0.000    28.781
ATOM      2  C   UNL     1      26.418 -14.266  -0.605 -0.32 -0.00    +0.000    28.781
ATOM      3  C   UNL     1      27.072 -14.403   0.777 -0.26 -0.00    +0.000    28.781
ATOM      4  C   UNL     1      26.823 -13.180   1.678 -0.33 -0.00    +0.000    28.781
ATOM      5  C   UNL     1      28.085 -12.621   2.354 -0.24 -0.00    +0.000    28.781
ATOM      6  O   UNL     1      28.200 -12.624   4.741 -0.38 -0.00    +0.000    28.781
ATOM      7  C   UNL     1      28.357 -13.279   3.676 -0.35 -0.00    +0.000    28.781
ATOM      8  N   UNL     1      28.815 -14.633   3.731 -0.38 -0.00    +0.000    28.781
ATOM      9  H   UNL     1      28.929 -15.143   2.897 -1.83 -0.00    +0.000    28.781
ATOM     10  O   UNL     1      29.091 -15.219   4.920 -0.43 -0.00    +0.000    28.781
ATOM     11  H   UNL     1      28.491 -14.872   5.599 -0.32 -0.00    +0.000    28.781
ATOM     12  C   UNL     1      26.347 -16.805  -0.387 -0.51 -0.00    +0.000    28.781
ATOM     13  C   UNL     1      25.153 -17.670  -0.672 -0.69 -0.00    +0.000    28.781
ATOM     14  N   UNL     1      23.857 -17.074  -0.846 -0.64 -0.00    +0.000    28.781
ATOM     15  O   UNL     1      25.299 -18.920  -0.748 -0.66 -0.00    +0.000    28.781
ATOM     16  H   UNL     1      23.816 -16.122  -1.090 -0.03 -0.00    +0.000    28.781
ATOM     17  C   UNL     1      22.617 -17.784  -0.686 -0.72 -0.00    +0.000    28.781
ATOM     18  C   UNL     1      22.635 -19.163  -0.439 -0.64 -0.00    +0.000    28.781
ATOM     19  C   UNL     1      21.437 -19.869  -0.315 -0.32 -0.00    +0.000    28.781
ATOM     20  C   UNL     1      20.226 -19.191  -0.453 -0.76 -0.00    +0.000    28.781
ATOM     21  N   UNL     1      20.219 -17.858  -0.717 -1.98 -0.00    +0.000    28.781
ATOM     22  C   UNL     1      21.372 -17.146  -0.839 -0.04 -0.00    +0.000    28.781
TER
ENDMDL
MODEL       66
USER    Run = 66
USER    Cluster Rank = 9
USER    Number of conformations in this cluster = 2
USER  
USER    RMSD from reference structure       = 28.938 A
USER  
USER    Estimated Free Energy of Binding    =   -9.14 kcal/mol  [=(1)+(2)+(3)-(4)]
USER    Estimated Inhibition Constant, Ki   =  200.58 nM (nanomolar)  [Temperature = 298.15 K]
USER    
USER    (1) Final Intermolecular Energy     =  -11.82 kcal/mol
USER        vdW + Hbond + desolv Energy     =  -11.82 kcal/mol
USER        Electrostatic Energy            =   +0.00 kcal/mol
USER    (2) Final Total Internal Energy     =   -1.84 kcal/mol
USER    (3) Torsional Free Energy           =   +2.68 kcal/mol
USER    (4) Unbound System's Energy  [=(2)] =   -1.84 kcal/mol
USER    
USER    
USER  
USER    DPF = ligand_dock.biased.dpf
USER    NEWDPF move	ligand.pdbqt
USER    NEWDPF about	-0.121000 -0.193000 0.463000
USER    NEWDPF tran0	29.222334 -17.413440 -2.379329
USER    NEWDPF axisangle0	0.749679 0.660785 -0.036677 -132.185685
USER    NEWDPF quaternion0	0.685359 0.604092 -0.033531 -0.405256
USER    NEWDPF dihe0	-6.86 -179.94 157.84 163.80 47.94 -179.97 -72.57 180.00 -56.68 
USER  
USER                              x       y       z    vdW   Elec        q     RMS 
ATOM      1  C   UNL     1      27.460 -15.117  -0.988 -0.28 -0.00    +0.000    28.938
ATOM      2  C   UNL     1      28.981 -15.178  -1.197 -0.16 -0.00    +0.000    28.938
ATOM      3  C   UNL     1      29.326 -15.806  -2.554 -0.19 -0.00    +0.000    28.938
ATOM      4  C   UNL     1      28.088 -16.345  -3.293 -0.13 -0.00    +0.000    28.938
ATOM      5  C   UNL     1      27.748 -15.599  -4.594 -0.37 -0.00    +0.000    28.938
ATOM      6  O   UNL     1      25.559 -15.979  -5.474 -1.03 +0.00    +0.000    28.938
ATOM      7  C   UNL     1      26.283 -15.293  -4.704 -0.56 -0.00    +0.000    28.938
ATOM      8  N   UNL     1      25.710 -14.213  -3.960 -0.49 -0.00    +0.000    28.938
ATOM      9  H   UNL     1      26.277 -13.684  -3.355 -0.01 -0.00    +0.000    28.938
ATOM     10  O   UNL     1      24.395 -13.915  -4.081 -1.15 -0.00    +0.000    28.938
ATOM     11  H   UNL     1      24.005 -14.452  -4.788 -0.50 -0.00    +0.000    28.938
ATOM     12  C   UNL     1      26.971 -16.158   0.028 -0.37 -0.00    +0.000    28.938
ATOM     13  C   UNL     1      25.867 -17.002  -0.540 -0.56 -0.00    +0.000    28.938
ATOM     14  N   UNL     1      24.504 -16.555  -0.457 -0.42 -0.00    +0.000    28.938
ATOM     15  O   UNL     1      26.148 -18.106  -1.081 -0.62 -0.00    +0.000    28.938
ATOM     16  H   UNL     1      24.341 -15.594  -0.326 -0.02 -0.00    +0.000    28.938
ATOM     17  C   UNL     1      23.364 -17.425  -0.554 -0.64 -0.00    +0.000    28.938
ATOM     18  C   UNL     1      23.557 -18.810  -0.653 -0.70 -0.00    +0.000    28.938
ATOM     19  C   UNL     1      22.459 -19.664  -0.780 -0.31 -0.00    +0.000    28.938
ATOM     20  C   UNL     1      21.174 -19.123  -0.822 -0.78 -0.00    +0.000    28.938
ATOM     21  N   UNL     1      20.999 -17.777  -0.750 -2.02 -0.00    +0.000    28.938
ATOM     22  C   UNL     1      22.051 -16.925  -0.622 -0.48 -0.00    +0.000    28.938
TER
ENDMDL
MODEL       88
USER    Run = 88
USER    Cluster Rank = 10
USER    Number of conformations in this cluster = 1
USER  
USER    RMSD from reference structure       = 28.748 A
USER  
USER    Estimated Free Energy of Binding    =   -8.60 kcal/mol  [=(1)+(2)+(3)-(4)]
USER    Estimated Inhibition Constant, Ki   =  497.80 nM (nanomolar)  [Temperature = 298.15 K]
USER    
USER    (1) Final Intermolecular Energy     =  -11.28 kcal/mol
USER        vdW + Hbond + desolv Energy     =  -11.28 kcal/mol
USER        Electrostatic Energy            =   +0.00 kcal/mol
USER    (2) Final Total Internal Energy     =   -1.11 kcal/mol
USER    (3) Torsional Free Energy           =   +2.68 kcal/mol
USER    (4) Unbound System's Energy  [=(2)] =   -1.11 kcal/mol
USER    
USER    
USER  
USER    DPF = ligand_dock.biased.dpf
USER    NEWDPF move	ligand.pdbqt
USER    NEWDPF about	-0.121000 -0.193000 0.463000
USER    NEWDPF tran0	20.908555 -18.236471 -0.865927
USER    NEWDPF axisangle0	0.618727 -0.655659 -0.432768 -106.203035
USER    NEWDPF quaternion0	0.494796 -0.524331 -0.346085 -0.600399
USER    NEWDPF dihe0	-11.10 152.25 -45.52 -179.67 119.33 -64.69 -111.79 36.01 -152.30 
USER  
USER                              x       y       z    vdW   Elec        q     RMS 
ATOM      1  C   UNL     1      24.103 -18.283  -1.194 -0.77 -0.00    +0.000    28.748
ATOM      2  C   UNL     1      23.252 -18.597   0.046 -0.70 -0.00    +0.000    28.748
ATOM      3  C   UNL     1      21.757 -18.410  -0.251 -0.82 -0.00    +0.000    28.748
ATOM      4  C   UNL     1      20.991 -19.744  -0.307 -0.78 -0.00    +0.000    28.748
ATOM      5  C   UNL     1      19.518 -19.612  -0.729 -0.84 -0.00    +0.000    28.748
ATOM      6  O   UNL     1      17.642 -20.870   0.055 -0.85 -0.00    +0.000    28.748
ATOM      7  C   UNL     1      18.579 -20.078   0.346 -0.70 -0.00    +0.000    28.748
ATOM      8  N   UNL     1      18.727 -19.612   1.690 -0.65 -0.00    +0.000    28.748
ATOM      9  H   UNL     1      19.464 -18.999   1.915 -0.41 -0.00    +0.000    28.748
ATOM     10  O   UNL     1      17.863 -20.006   2.656 -0.70 -0.00    +0.000    28.748
ATOM     11  H   UNL     1      17.107 -20.457   2.249 -0.03 -0.00    +0.000    28.748
ATOM     12  C   UNL     1      24.049 -16.797  -1.574 -0.54 -0.00    +0.000    28.748
ATOM     13  C   UNL     1      25.407 -16.278  -1.951 -0.57 -0.00    +0.000    28.748
ATOM     14  N   UNL     1      25.584 -15.547  -3.175 -0.52 -0.00    +0.000    28.748
ATOM     15  O   UNL     1      26.387 -16.498  -1.188 -0.47 -0.00    +0.000    28.748
ATOM     16  H   UNL     1      24.791 -15.129  -3.581 -0.06 -0.00    +0.000    28.748
ATOM     17  C   UNL     1      26.847 -15.389  -3.844 -0.40 -0.00    +0.000    28.748
ATOM     18  C   UNL     1      26.872 -15.026  -5.198 -0.40 -0.00    +0.000    28.748
ATOM     19  C   UNL     1      28.091 -14.902  -5.867 -0.36 -0.00    +0.000    28.748
ATOM     20  C   UNL     1      29.278 -15.156  -5.179 -0.26 -0.00    +0.000    28.748
ATOM     21  N   UNL     1      29.241 -15.531  -3.874 -0.19 -0.00    +0.000    28.748
ATOM     22  C   UNL     1      28.067 -15.656  -3.198 -0.25 -0.00    +0.000    28.748
TER
ENDMDL
MODEL       53
USER    Run = 53
USER    Cluster Rank = 11
USER    Number of conformations in this cluster = 1
USER  
USER    RMSD from reference structure       = 30.385 A
USER  
USER    Estimated Free Energy of Binding    =   -8.21 kcal/mol  [=(1)+(2)+(3)-(4)]
USER    Estimated Inhibition Constant, Ki   =  963.62 nM (nanomolar)  [Temperature = 298.15 K]
USER    
USER    (1) Final Intermolecular Energy     =  -10.89 kcal/mol
USER        vdW + Hbond + desolv Energy     =  -10.89 kcal/mol
USER        Electrostatic Energy            =   +0.00 kcal/mol
USER    (2) Final Total Internal Energy     =   -1.42 kcal/mol
USER    (3) Torsional Free Energy           =   +2.68 kcal/mol
USER    (4) Unbound System's Energy  [=(2)] =   -1.42 kcal/mol
USER    
USER    
USER  
USER    DPF = ligand_dock.biased.dpf
USER    NEWDPF move	ligand.pdbqt
USER    NEWDPF about	-0.121000 -0.193000 0.463000
USER    NEWDPF tran0	28.370653 -17.053836 -0.525595
USER    NEWDPF axisangle0	-0.534893 0.190969 -0.823055 -168.472872
USER    NEWDPF quaternion0	-0.532189 0.190004 -0.818895 -0.100424
USER    NEWDPF dihe0	-6.19 -5.08 47.21 70.55 79.42 -155.25 56.59 -22.15 12.01 
USER  
USER                              x       y       z    vdW   Elec        q     RMS 
ATOM      1  C   UNL     1      25.334 -16.056  -0.846 -0.47 -0.00    +0.000    30.385
ATOM      2  C   UNL     1      25.869 -17.482  -0.644 -0.63 -0.00    +0.000    30.385
ATOM      3  C   UNL     1      24.734 -18.450  -0.282 -0.66 -0.00    +0.000    30.385
ATOM      4  C   UNL     1      23.344 -17.902  -0.650 -0.80 -0.00    +0.000    30.385
ATOM      5  C   UNL     1      22.340 -18.972  -1.109 -0.82 -0.00    +0.000    30.385
ATOM      6  O   UNL     1      20.260 -17.866  -0.706 -2.21 +0.00    +0.000    30.385
ATOM      7  C   UNL     1      21.013 -18.835  -0.420 -0.81 -0.00    +0.000    30.385
ATOM      8  N   UNL     1      20.612 -19.781   0.575 -0.68 -0.00    +0.000    30.385
ATOM      9  H   UNL     1      21.200 -20.540   0.791 -0.59 -0.00    +0.000    30.385
ATOM     10  O   UNL     1      19.430 -19.642   1.221 -0.75 -0.00    +0.000    30.385
ATOM     11  H   UNL     1      19.019 -18.802   0.967 -0.34 -0.00    +0.000    30.385
ATOM     12  C   UNL     1      25.705 -15.487  -2.222 -0.50 -0.00    +0.000    30.385
ATOM     13  C   UNL     1      27.193 -15.472  -2.426 -0.34 -0.00    +0.000    30.385
ATOM     14  N   UNL     1      27.904 -16.703  -2.630 -0.27 -0.00    +0.000    30.385
ATOM     15  O   UNL     1      27.808 -14.371  -2.407 -0.19 -0.00    +0.000    30.385
ATOM     16  H   UNL     1      27.395 -17.483  -2.945 +0.05 -0.00    +0.000    30.385
ATOM     17  C   UNL     1      29.315 -16.866  -2.401 -0.21 -0.00    +0.000    30.385
ATOM     18  C   UNL     1      30.186 -16.967  -3.495 -0.19 -0.00    +0.000    30.385
ATOM     19  C   UNL     1      31.553 -17.159  -3.287 -0.09 -0.00    +0.000    30.385
ATOM     20  C   UNL     1      32.038 -17.261  -1.983 -0.06 -0.00    +0.000    30.385
ATOM     21  N   UNL     1      31.182 -17.186  -0.930 -0.14 -0.00    +0.000    30.385
ATOM     22  C   UNL     1      29.847 -16.996  -1.105 -0.21 -0.00    +0.000    30.385
TER
ENDMDL
MODEL       44
USER    Run = 44
USER    Cluster Rank = 12
USER    Number of conformations in this cluster = 1
USER  
USER    RMSD from reference structure       = 29.258 A
USER  
USER    Estimated Free Energy of Binding    =   -6.38 kcal/mol  [=(1)+(2)+(3)-(4)]
USER    Estimated Inhibition Constant, Ki   =   21.06 uM (micromolar)  [Temperature = 298.15 K]
USER    
USER    (1) Final Intermolecular Energy     =   -9.06 kcal/mol
USER        vdW + Hbond + desolv Energy     =   -9.06 kcal/mol
USER        Electrostatic Energy            =   +0.00 kcal/mol
USER    (2) Final Total Internal Energy     =   -2.61 kcal/mol
USER    (3) Torsional Free Energy           =   +2.68 kcal/mol
USER    (4) Unbound System's Energy  [=(2)] =   -2.61 kcal/mol
USER    
USER    
USER  
USER    DPF = ligand_dock.biased.dpf
USER    NEWDPF move	ligand.pdbqt
USER    NEWDPF about	-0.121000 -0.193000 0.463000
USER    NEWDPF tran0	28.078001 -9.786721 1.884623
USER    NEWDPF axisangle0	-0.155480 -0.596094 -0.787717 166.979165
USER    NEWDPF quaternion0	-0.154477 -0.592250 -0.782637 0.113384
USER    NEWDPF dihe0	2.64 19.12 -57.72 -99.02 48.50 25.95 -135.03 -29.21 179.69 
USER  
USER                              x       y       z    vdW   Elec        q     RMS 
ATOM      1  C   UNL     1      26.339 -12.132   0.547 -0.27 -0.00    +0.000    29.258
ATOM      2  C   UNL     1      26.230 -11.529   1.955 -0.36 +0.00    +0.000    29.258
ATOM      3  C   UNL     1      27.564 -10.908   2.393 -0.25 +0.00    +0.000    29.258
ATOM      4  C   UNL     1      27.669 -10.736   3.919 -0.32 +0.00    +0.000    29.258
ATOM      5  C   UNL     1      28.752 -11.602   4.584 -0.25 +0.00    +0.000    29.258
ATOM      6  O   UNL     1      29.712 -13.161   3.048 -0.16 -0.00    +0.000    29.258
ATOM      7  C   UNL     1      28.857 -12.960   3.952 -0.28 -0.00    +0.000    29.258
ATOM      8  N   UNL     1      27.978 -14.015   4.351 -0.51 -0.00    +0.000    29.258
ATOM      9  H   UNL     1      27.316 -13.856   5.062 -0.05 -0.00    +0.000    29.258
ATOM     10  O   UNL     1      28.049 -15.232   3.760 -0.48 -0.00    +0.000    29.258
ATOM     11  H   UNL     1      28.774 -15.237   3.117 -1.71 -0.00    +0.000    29.258
ATOM     12  C   UNL     1      27.634 -12.935   0.358 -0.20 -0.00    +0.000    29.258
ATOM     13  C   UNL     1      27.357 -14.408   0.270 -0.29 -0.00    +0.000    29.258
ATOM     14  N   UNL     1      26.595 -14.933  -0.829 -0.31 -0.00    +0.000    29.258
ATOM     15  O   UNL     1      27.792 -15.174   1.172 -0.34 -0.00    +0.000    29.258
ATOM     16  H   UNL     1      26.539 -14.394  -1.650 -0.00 -0.00    +0.000    29.258
ATOM     17  C   UNL     1      25.909 -16.196  -0.802 -0.43 -0.00    +0.000    29.258
ATOM     18  C   UNL     1      24.728 -16.358  -1.540 -0.50 -0.00    +0.000    29.258
ATOM     19  C   UNL     1      24.035 -17.569  -1.497 -0.63 -0.00    +0.000    29.258
ATOM     20  C   UNL     1      24.522 -18.608  -0.704 -0.66 -0.00    +0.000    29.258
ATOM     21  N   UNL     1      25.655 -18.433   0.026 -0.64 -0.00    +0.000    29.258
ATOM     22  C   UNL     1      26.350 -17.264  -0.000 -0.42 -0.00    +0.000    29.258
TER
ENDMDL


AVSFLD: # AVS field file
AVSFLD: #
AVSFLD: # Created by AutoDock
AVSFLD: #
AVSFLD: ndim=2           # number of dimensions in the field
AVSFLD: nspace=1         # number of physical coordinates
AVSFLD: veclen=7         # vector size
AVSFLD: dim1=22          # atoms
AVSFLD: dim2=12          # conformations
AVSFLD: data=Real       # data type (byte,integer,Real,double)
AVSFLD: field=uniform    # field coordinate layout
AVSFLD: label= x y z vdW Elec q RMS
AVSFLD: variable 1 file = ligand_dock.biased.dlg.pdb filetype = ascii offset = 5 stride = 12
AVSFLD: variable 2 file = ligand_dock.biased.dlg.pdb filetype = ascii offset = 6 stride = 12
AVSFLD: variable 3 file = ligand_dock.biased.dlg.pdb filetype = ascii offset = 7 stride = 12
AVSFLD: variable 4 file = ligand_dock.biased.dlg.pdb filetype = ascii offset = 8 stride = 12
AVSFLD: variable 5 file = ligand_dock.biased.dlg.pdb filetype = ascii offset = 9 stride = 12
AVSFLD: variable 6 file = ligand_dock.biased.dlg.pdb filetype = ascii offset = 10 stride = 12
AVSFLD: variable 7 file = ligand_dock.biased.dlg.pdb filetype = ascii offset = 11 stride = 12
AVSFLD: # end of file

>>> Closing the docking parameter file (DPF)...
This docking finished at:			10:14 37" a.m., 11/08/2024


________________________________________________________________________________

autodock4: Successful Completion on "ThinkStation-P620"

Real= 11m 20.72s,  CPU= 11m 20.45s,  System= 0.19s
________________________________________________________________________________

