REMARK  Name = 
REMARK  9 active torsions:
REMARK  status: ('A' for Active; 'I' for Inactive)
REMARK    1  A    between atoms: C_2  and  C_10
REMARK    2  A    between atoms: N_3  and  C_4
REMARK    3  A    between atoms: C_10  and  C_11
REMARK    4  A    between atoms: C_11  and  C_12
REMARK    5  A    between atoms: C_12  and  C_13
REMARK    6  A    between atoms: C_13  and  C_14
REMARK    7  A    between atoms: C_14  and  C_15
REMARK    8  A    between atoms: C_15  and  C_16
REMARK    9  A    between atoms: N_17  and  O_18
REMARK                            x       y       z     vdW  Elec       q    Type
REMARK                         _______ _______ _______ _____ _____    ______ ____
ROOT
ATOM      1  C   UNL     1      -0.454   2.118   0.887  0.00  0.00    +0.000 C 
ENDROOT
BRANCH   1   3
ATOM      2  O   UNL     1      -1.931   1.128   2.476  0.00  0.00    +0.000 OA
ATOM      3  C   UNL     1      -1.729   1.428   1.268  0.00  0.00    +0.000 C 
ATOM      4  N   UNL     1      -2.704   1.111   0.262  0.00  0.00    +0.000 N 
ATOM      5  H   UNL     1      -2.580   1.492  -0.638  0.00  0.00    +0.000 HD
BRANCH   4   6
ATOM      6  C   UNL     1      -3.848   0.272   0.487  0.00  0.00    +0.000 A 
ATOM      7  C   UNL     1      -3.776  -0.858   1.324  0.00  0.00    +0.000 A 
ATOM      8  C   UNL     1      -4.900  -1.669   1.510  0.00  0.00    +0.000 A 
ATOM      9  C   UNL     1      -6.097  -1.371   0.854  0.00  0.00    +0.000 A 
ATOM     10  C   UNL     1      -6.170  -0.266   0.002  0.00  0.00    +0.000 A 
ATOM     11  C   UNL     1      -5.049   0.547  -0.187  0.00  0.00    +0.000 A 
ENDBRANCH   4   6
ENDBRANCH   1   3
BRANCH   1  12
ATOM     12  C   UNL     1       0.582   1.096   0.407  0.00  0.00    +0.000 C 
BRANCH  12  13
ATOM     13  C   UNL     1       1.892   1.790   0.006  0.00  0.00    +0.000 C 
BRANCH  13  14
ATOM     14  C   UNL     1       3.007   0.792  -0.340  0.00  0.00    +0.000 C 
BRANCH  14  15
ATOM     15  C   UNL     1       2.754   0.058  -1.669  0.00  0.00    +0.000 C 
BRANCH  15  16
ATOM     16  C   UNL     1       3.956  -0.793  -2.099  0.00  0.00    +0.000 C 
BRANCH  16  17
ATOM     17  C   UNL     1       4.162  -1.966  -1.185  0.00  0.00    +0.000 C 
ATOM     18  N   UNL     1       5.095  -1.888  -0.105  0.00  0.00    +0.000 N 
ATOM     19  O   UNL     1       3.485  -3.015  -1.356  0.00  0.00    +0.000 OA
ATOM     20  H   UNL     1       5.631  -1.071   0.019  0.00  0.00    +0.000 HD
BRANCH  18  21
ATOM     21  O   UNL     1       5.249  -2.927   0.750  0.00  0.00    +0.000 OA
ATOM     22  H   UNL     1       4.654  -3.648   0.492  0.00  0.00    +0.000 HD
ENDBRANCH  18  21
ENDBRANCH  16  17
ENDBRANCH  15  16
ENDBRANCH  14  15
ENDBRANCH  13  14
ENDBRANCH  12  13
ENDBRANCH   1  12
TORSDOF 9
