          AutoDock 4.2 Release 4.2.6   
         (C) 1989-2012 The Scripps Research Institute
        AutoDock comes with ABSOLUTELY NO WARRANTY.
        AutoDock is free software, and you are welcome
        to redistribute it under certain conditions;
        for details type 'autodock4 -C'

                     main.cc  $Revision: 1.213 $

                   Compiled on Feb 20 2022 at 09:48:33


This file was created at:			10:03 16" a.m., 11/08/2024
                   on host:		"ThinkStation-P620"
Current Working Directory = "/home/antonio/Documenti/buccheri/IDROSSAMICO HDAC/HDAC 2/P/Ligand_5"

      ________________________________________________________________

                   SETTING UP DEFAULT PARAMETER LIBRARY
      ________________________________________________________________


Random number generator was seeded with values 328175, 1731056596.
Docking parameter file (DPF) used for this docking:		ligand_dock.biased.dpf
DPF> autodock_parameter_version 4.2       # used by autodock to validate parameter set

	Autodock parameter version 4.2.
DPF> outlev 1                             # diagnostic output level

Output Level = 1  ADT-COMPATIBLE OUTPUT DURING DOCKING.
DPF> intelec                              # calculate internal electrostatics

Electrostatic energies will be calculated for all non-bonds between moving atoms.
DPF> seed pid time                        # seeds for random generator

Random number generator was seeded with values 328175, 1731056596.
DPF> ligand_types A C HD OA N             # atoms types in ligand

DPF> fld receptor.maps.fld                # grid_data_file

Opening Grid Map Dimensions file:		receptor.maps.fld
Grid Point Spacing =				0.375 Angstroms

Even Number of User-specified Grid Points =	70 x-points
						70 y-points
						70 z-points

Coordinates of Central Grid Point of Maps =	(24.757, -16.735, 0.794)
Macromolecule file used to create Grid Maps =	receptor.pdbqt
Grid Parameter file used to create Grid Maps =	receptor.gpf
Minimum coordinates in grid = (11.632, -29.860, -12.331)
Maximum coordinates in grid = (37.882, -3.610, 13.919)

DPF> map receptor.A.map                   # atom-specific affinity map

DPF> map receptor.C.map                   # atom-specific affinity map

DPF> map receptor.HD.biased.map

DPF> map receptor.OA.biased.map

DPF> map receptor.N.map                   # atom-specific affinity map

DPF> elecmap receptor.e.map               # electrostatics map

DPF> desolvmap receptor.d.map             # desolvation map

DPF> move ligand.pdbqt                    # small molecule

1,4-interactions will be _ignored_ in the non-bonded internal energy calculation.

Ligand PDBQT file = "ligand.pdbqt"

INPUT LIGAND PDBQT FILE:
________________________

INPUT-LIGAND-PDBQT: REMARK  Name = 
INPUT-LIGAND-PDBQT: REMARK  9 active torsions:
INPUT-LIGAND-PDBQT: REMARK  status: ('A' for Active; 'I' for Inactive)
INPUT-LIGAND-PDBQT: REMARK    1  A    between atoms: C_2  and  C_10
INPUT-LIGAND-PDBQT: REMARK    2  A    between atoms: N_3  and  C_4
INPUT-LIGAND-PDBQT: REMARK    3  A    between atoms: C_10  and  C_11
INPUT-LIGAND-PDBQT: REMARK    4  A    between atoms: C_11  and  C_12
INPUT-LIGAND-PDBQT: REMARK    5  A    between atoms: C_12  and  C_13
INPUT-LIGAND-PDBQT: REMARK    6  A    between atoms: C_13  and  C_14
INPUT-LIGAND-PDBQT: REMARK    7  A    between atoms: C_14  and  C_15
INPUT-LIGAND-PDBQT: REMARK    8  A    between atoms: C_15  and  C_16
INPUT-LIGAND-PDBQT: REMARK    9  A    between atoms: N_17  and  O_18
INPUT-LIGAND-PDBQT: REMARK                            x       y       z     vdW  Elec       q    Type
INPUT-LIGAND-PDBQT: REMARK                         _______ _______ _______ _____ _____    ______ ____
INPUT-LIGAND-PDBQT: ROOT
INPUT-LIGAND-PDBQT: ATOM      1  C   UNL     1      -0.454   2.118   0.887  0.00  0.00    +0.000 C 
INPUT-LIGAND-PDBQT: ENDROOT
INPUT-LIGAND-PDBQT: BRANCH   1   3
INPUT-LIGAND-PDBQT: ATOM      2  O   UNL     1      -1.931   1.128   2.476  0.00  0.00    +0.000 OA
INPUT-LIGAND-PDBQT: ATOM      3  C   UNL     1      -1.729   1.428   1.268  0.00  0.00    +0.000 C 
INPUT-LIGAND-PDBQT: ATOM      4  N   UNL     1      -2.704   1.111   0.262  0.00  0.00    +0.000 N 
INPUT-LIGAND-PDBQT: ATOM      5  H   UNL     1      -2.580   1.492  -0.638  0.00  0.00    +0.000 HD
INPUT-LIGAND-PDBQT: BRANCH   4   6
INPUT-LIGAND-PDBQT: ATOM      6  C   UNL     1      -3.848   0.272   0.487  0.00  0.00    +0.000 A 
INPUT-LIGAND-PDBQT: ATOM      7  C   UNL     1      -3.776  -0.858   1.324  0.00  0.00    +0.000 A 
INPUT-LIGAND-PDBQT: ATOM      8  C   UNL     1      -4.900  -1.669   1.510  0.00  0.00    +0.000 A 
INPUT-LIGAND-PDBQT: ATOM      9  C   UNL     1      -6.097  -1.371   0.854  0.00  0.00    +0.000 A 
INPUT-LIGAND-PDBQT: ATOM     10  C   UNL     1      -6.170  -0.266   0.002  0.00  0.00    +0.000 A 
INPUT-LIGAND-PDBQT: ATOM     11  C   UNL     1      -5.049   0.547  -0.187  0.00  0.00    +0.000 A 
INPUT-LIGAND-PDBQT: ENDBRANCH   4   6
INPUT-LIGAND-PDBQT: ENDBRANCH   1   3
INPUT-LIGAND-PDBQT: BRANCH   1  12
INPUT-LIGAND-PDBQT: ATOM     12  C   UNL     1       0.582   1.096   0.407  0.00  0.00    +0.000 C 
INPUT-LIGAND-PDBQT: BRANCH  12  13
INPUT-LIGAND-PDBQT: ATOM     13  C   UNL     1       1.892   1.790   0.006  0.00  0.00    +0.000 C 
INPUT-LIGAND-PDBQT: BRANCH  13  14
INPUT-LIGAND-PDBQT: ATOM     14  C   UNL     1       3.007   0.792  -0.340  0.00  0.00    +0.000 C 
INPUT-LIGAND-PDBQT: BRANCH  14  15
INPUT-LIGAND-PDBQT: ATOM     15  C   UNL     1       2.754   0.058  -1.669  0.00  0.00    +0.000 C 
INPUT-LIGAND-PDBQT: BRANCH  15  16
INPUT-LIGAND-PDBQT: ATOM     16  C   UNL     1       3.956  -0.793  -2.099  0.00  0.00    +0.000 C 
INPUT-LIGAND-PDBQT: BRANCH  16  17
INPUT-LIGAND-PDBQT: ATOM     17  C   UNL     1       4.162  -1.966  -1.185  0.00  0.00    +0.000 C 
INPUT-LIGAND-PDBQT: ATOM     18  N   UNL     1       5.095  -1.888  -0.105  0.00  0.00    +0.000 N 
INPUT-LIGAND-PDBQT: ATOM     19  O   UNL     1       3.485  -3.015  -1.356  0.00  0.00    +0.000 OA
INPUT-LIGAND-PDBQT: ATOM     20  H   UNL     1       5.631  -1.071   0.019  0.00  0.00    +0.000 HD
INPUT-LIGAND-PDBQT: BRANCH  18  21
INPUT-LIGAND-PDBQT: ATOM     21  O   UNL     1       5.249  -2.927   0.750  0.00  0.00    +0.000 OA
INPUT-LIGAND-PDBQT: ATOM     22  H   UNL     1       4.654  -3.648   0.492  0.00  0.00    +0.000 HD
INPUT-LIGAND-PDBQT: ENDBRANCH  18  21
INPUT-LIGAND-PDBQT: ENDBRANCH  16  17
INPUT-LIGAND-PDBQT: ENDBRANCH  15  16
INPUT-LIGAND-PDBQT: ENDBRANCH  14  15
INPUT-LIGAND-PDBQT: ENDBRANCH  13  14
INPUT-LIGAND-PDBQT: ENDBRANCH  12  13
INPUT-LIGAND-PDBQT: ENDBRANCH   1  12
INPUT-LIGAND-PDBQT: TORSDOF 9
________________________________________________________________________________

Total charge on ligand                               =	+0.000 e
REMARK  Name = 
REMARK  9 active torsions:
REMARK  status: ('A' for Active; 'I' for Inactive)
REMARK    1  A    between atoms: C_2  and  C_10
REMARK    2  A    between atoms: N_3  and  C_4
REMARK    3  A    between atoms: C_10  and  C_11
REMARK    4  A    between atoms: C_11  and  C_12
REMARK    5  A    between atoms: C_12  and  C_13
REMARK    6  A    between atoms: C_13  and  C_14
REMARK    7  A    between atoms: C_14  and  C_15
REMARK    8  A    between atoms: C_15  and  C_16
REMARK    9  A    between atoms: N_17  and  O_18
REMARK                            x       y       z     vdW  Elec       q    Type
REMARK                         _______ _______ _______ _____ _____    ______ ____


Number of Rotatable Bonds in Small Molecule =	9 torsions
Number of atoms in ligand:  22

Number of non-hydrogen atoms in ligand:  19

Number of vibrational degrees of freedom of ligand:  60


Number of torsional degrees of freedom = 9
Estimated loss of torsional free energy upon binding = +2.6847 kcal/mol


DPF> about 0.056 -0.347 0.144            # small molecule center

Small molecule center of rotation =	(+0.056, -0.347, +0.144)

DPF> tran0 random                         # initial coordinates/A or random

Initial translation =			(34.150, -21.820, 7.048) Angstroms
DPF> quaternion0 random                   # initial orientation

Each run will begin with a new, random initial orientation.
Initial quaternion,  (x,y,z,w) =	( -0.219, -0.335, -0.211, 0.892 ),
DPF> dihe0 random                         # initial dihedrals (relative) or random

DPF> torsdof 9                            # torsional degrees of freedom

Number of torsional degrees of freedom = 9
Free energy coefficient for torsional degrees of freedom = 0.2983, the factory default value.

Estimated loss of torsional free energy upon binding = +2.6847 kcal/mol

DPF> rmstol 2.0                           # cluster_tolerance/A

Maximum RMS tolerance for conformational cluster analysis = 2.00 Angstroms
DPF> extnrg 1000.0                        # external grid energy

External grid energy (beyond grid map walls) = 1000.00

DPF> e0max 0.0 10000                      # max initial energy; max number of retries

Using user-specified maximum number of retries for simanneal initialization, 10000 retries.
If the simanneal initial energy is greater than e0max, 0.000,
then a new, random initial state will be created.

DPF> ga_pop_size 150                      # number of individuals in population

A population of 150 individuals will be used
DPF> ga_num_evals 2500000                 # maximum number of energy evaluations

There will be at most 2500000 function evaluations used.
DPF> ga_num_generations 27000             # maximum number of generations

The GA will run for at most 27000 generations.
DPF> ga_elitism 1                         # number of top individuals to survive to next generation

The 1 best will be preserved each GA generation.
DPF> ga_mutation_rate 0.02                # rate of gene mutation

The mutation rate is 0.020000.
DPF> ga_crossover_rate 0.8                # rate of crossover

The crossover rate is 0.800000.
DPF> ga_window_size 10                    # 

The GA's selection window is 10 generations.
DPF> ga_cauchy_alpha 0.0                  # Alpha parameter of Cauchy distribution

The alpha parameter (for the Cauchy distribution) is being set to 0.000000.
DPF> ga_cauchy_beta 1.0                   # Beta parameter Cauchy distribution

The beta parameter (for the Cauchy distribution) is being set to 1.000000.
DPF> set_ga                               # set the above parameters for GA or LGA

DPF> sw_max_its 300                       # iterations of Solis & Wets local search

Solis & Wets algorithms will perform at most 300 iterations.
DPF> sw_max_succ 4                        # consecutive successes before changing rho

Solis & Wets algorithms expand rho every 4 in a row successes.
DPF> sw_max_fail 4                        # consecutive failures before changing rho

Solis & Wets algorithms contract rho every 4 in a row failures.
DPF> sw_rho 1.0                           # size of local search space to sample

rho is set to 1.000000.
DPF> sw_lb_rho 0.01                       # lower bound on rho

rho will never get smaller than 0.010000.
DPF> ls_search_freq 0.06                  # probability of performing local search on individual

Local search will be performed with frequency 0.060000.
DPF> set_psw1                             # set the above pseudo-Solis & Wets parameters

Creating a new Local Search object using the pseudo-Solis-Wets algorithm (pSW1) with the current settings.

DPF> unbound_model bound                  # state of unbound ligand

DPF> ga_run 100

centering ligand on specified point: 0.056 -0.347 0.144
Furthest true ligand atom from "about" center is 6.278 Angstroms (maxrad).
Number of requested GA dockings = 100 runs
Unbound model to be used is 'same as bound' [AutoDock 4.2 default].

	BEGINNING GENETIC ALGORITHM DOCKING 1 of 100
Run: 1 Seed: 204111207 1997114283 [ Run 1 of 100 GA/GALS ]
Beginning LAMARCKIAN GENETIC ALGORITHM (LGA), with a maximum of 2500000 energy evaluations.

Final-Value: -13.496


	FINAL GENETIC ALGORITHM DOCKED STATE
	_______________________________________________


Detailed state:  trans 25.849 -16.969 -1.888 quatxyzw 0.265725 0.619481 0.700172 0.235358 center 0.056 -0.347 0.144 ntor 9 -3.4629 -175.6608 -119.8908 180.0000 52.1747 -30.4985 -9.3712 -11.6567 174.5876
State:	 25.849 -16.969  -1.888   0.273  0.637  0.720 152.775     -3.46 -175.66 -119.89  180.00   52.17  -30.50   -9.37  -11.66  174.59

DOCKED: MODEL        1
DOCKED: USER    Run = 1
DOCKED: USER    DPF = ligand_dock.biased.dpf
DOCKED: USER  
DOCKED: USER    Estimated Free Energy of Binding    =   -9.42 kcal/mol  [=(1)+(2)+(3)-(4)]
DOCKED: USER    Estimated Inhibition Constant, Ki   =  124.63 nM (nanomolar)  [Temperature = 298.15 K]
DOCKED: USER    
DOCKED: USER    (1) Final Intermolecular Energy     =  -12.10 kcal/mol
DOCKED: USER        vdW + Hbond + desolv Energy     =  -12.10 kcal/mol
DOCKED: USER        Electrostatic Energy            =   +0.00 kcal/mol
DOCKED: USER    (2) Final Total Internal Energy     =   -1.39 kcal/mol
DOCKED: USER    (3) Torsional Free Energy           =   +2.68 kcal/mol
DOCKED: USER    (4) Unbound System's Energy  [=(2)] =   -1.39 kcal/mol
DOCKED: USER    
DOCKED: USER    
DOCKED: USER    NEWDPF move ligand.pdbqt
DOCKED: USER    NEWDPF about 0.056000 -0.347000 0.144000
DOCKED: USER    NEWDPF tran0 25.848621 -16.969491 -1.887741
DOCKED: USER    NEWDPF quaternion0 0.265725 0.619481 0.700172 0.235358
DOCKED: USER    NEWDPF axisangle0 0.273406 0.637386 0.720409 152.774600
DOCKED: USER    NEWDPF quat0 0.273406 0.637386 0.720409 152.774600
DOCKED: USER    NEWDPF dihe0 -3.46 -175.66 -119.89 180.00 52.17 -30.50 -9.37 -11.66 174.59 
DOCKED: USER  keepresnum = 1 
DOCKED: USER  
DOCKED: REMARK  Name = 
DOCKED: REMARK  9 active torsions:
DOCKED: REMARK  status: ('A' for Active; 'I' for Inactive)
DOCKED: REMARK    1  A    between atoms: C_2  and  C_10
DOCKED: REMARK    2  A    between atoms: N_3  and  C_4
DOCKED: REMARK    3  A    between atoms: C_10  and  C_11
DOCKED: REMARK    4  A    between atoms: C_11  and  C_12
DOCKED: REMARK    5  A    between atoms: C_12  and  C_13
DOCKED: REMARK    6  A    between atoms: C_13  and  C_14
DOCKED: REMARK    7  A    between atoms: C_14  and  C_15
DOCKED: REMARK    8  A    between atoms: C_15  and  C_16
DOCKED: REMARK    9  A    between atoms: N_17  and  O_18
DOCKED: REMARK                            x       y       z     vdW  Elec       q    Type
DOCKED: REMARK                         _______ _______ _______ _____ _____    ______ ____
DOCKED: USER                              x       y       z     vdW  Elec       q    Type
DOCKED: USER                           _______ _______ _______ _____ _____    ______ ____
DOCKED: ROOT
DOCKED: ATOM      1  C   UNL     1      27.914 -16.532  -0.328 -0.36 -0.00    +0.000 C 
DOCKED: ENDROOT
DOCKED: BRANCH   1   3
DOCKED: ATOM      2  O   UNL     1      28.331 -14.854  -1.971 -0.17 -0.00    +0.000 OA
DOCKED: ATOM      3  C   UNL     1      28.444 -16.069  -1.652 -0.28 -0.00    +0.000 C 
DOCKED: ATOM      4  N   UNL     1      29.068 -17.006  -2.545 -0.25 -0.00    +0.000 N 
DOCKED: ATOM      5  H   UNL     1      29.271 -17.907  -2.201 -0.02 -0.00    +0.000 HD
DOCKED: BRANCH   4   6
DOCKED: ATOM      6  C   UNL     1      29.413 -16.711  -3.907 -0.21 -0.00    +0.000 A 
DOCKED: ATOM      7  C   UNL     1      30.538 -17.293  -4.522 -0.22 -0.00    +0.000 A 
DOCKED: ATOM      8  C   UNL     1      30.862 -16.973  -5.844 -0.24 -0.00    +0.000 A 
DOCKED: ATOM      9  C   UNL     1      30.080 -16.061  -6.558 -0.31 -0.00    +0.000 A 
DOCKED: ATOM     10  C   UNL     1      28.976 -15.460  -5.947 -0.34 -0.00    +0.000 A 
DOCKED: ATOM     11  C   UNL     1      28.649 -15.777  -4.626 -0.28 -0.00    +0.000 A 
DOCKED: ENDBRANCH   4   6
DOCKED: ENDBRANCH   1   3
DOCKED: BRANCH   1  12
DOCKED: ATOM     12  C   UNL     1      26.427 -16.884  -0.443 -0.53 -0.00    +0.000 C 
DOCKED: BRANCH  12  13
DOCKED: ATOM     13  C   UNL     1      25.885 -16.528  -1.835 -0.55 -0.00    +0.000 C 
DOCKED: BRANCH  13  14
DOCKED: ATOM     14  C   UNL     1      24.560 -17.237  -2.153 -0.50 -0.00    +0.000 C 
DOCKED: BRANCH  14  15
DOCKED: ATOM     15  C   UNL     1      23.608 -17.283  -0.944 -0.72 -0.00    +0.000 C 
DOCKED: BRANCH  15  16
DOCKED: ATOM     16  C   UNL     1      22.962 -18.664  -0.767 -0.83 -0.00    +0.000 C 
DOCKED: BRANCH  16  17
DOCKED: ATOM     17  C   UNL     1      21.489 -18.629  -1.055 -0.81 -0.00    +0.000 C 
DOCKED: ATOM     18  N   UNL     1      20.848 -19.740  -1.685 -0.74 -0.00    +0.000 N 
DOCKED: ATOM     19  O   UNL     1      20.811 -17.624  -0.712 -2.15 -0.00    +0.000 OA
DOCKED: ATOM     20  H   UNL     1      21.383 -20.520  -1.963 -0.40 -0.00    +0.000 HD
DOCKED: BRANCH  18  21
DOCKED: ATOM     21  O   UNL     1      19.512 -19.732  -1.904 -1.64 -0.00    +0.000 OA
DOCKED: ATOM     22  H   UNL     1      19.128 -18.926  -1.527 -0.56 -0.00    +0.000 HD
DOCKED: ENDBRANCH  18  21
DOCKED: ENDBRANCH  16  17
DOCKED: ENDBRANCH  15  16
DOCKED: ENDBRANCH  14  15
DOCKED: ENDBRANCH  13  14
DOCKED: ENDBRANCH  12  13
DOCKED: ENDBRANCH   1  12
DOCKED: TORSDOF 9
DOCKED: TER
DOCKED: ENDMDL
________________________________________________________________________________


	BEGINNING GENETIC ALGORITHM DOCKING 2 of 100
Run: 2 Seed: 1842142801 657748564 [ Run 2 of 100 GA/GALS ]
Beginning LAMARCKIAN GENETIC ALGORITHM (LGA), with a maximum of 2500000 energy evaluations.

Final-Value: -14.087


	FINAL GENETIC ALGORITHM DOCKED STATE
	_______________________________________________


Detailed state:  trans 24.956 -14.218 -0.723 quatxyzw 0.198011 0.386452 -0.745996 -0.504912 center 0.056 -0.347 0.144 ntor 9 -0.8867 -87.3735 -144.2870 177.5917 11.9792 -30.2278 -138.4660 -71.1437 31.8558
State:	 24.956 -14.218  -0.723   0.229  0.448 -0.864 -119.349     -0.89  -87.37 -144.29  177.59   11.98  -30.23 -138.47  -71.14   31.86

DOCKED: MODEL        2
DOCKED: USER    Run = 2
DOCKED: USER    DPF = ligand_dock.biased.dpf
DOCKED: USER  
DOCKED: USER    Estimated Free Energy of Binding    =  -10.06 kcal/mol  [=(1)+(2)+(3)-(4)]
DOCKED: USER    Estimated Inhibition Constant, Ki   =   42.49 nM (nanomolar)  [Temperature = 298.15 K]
DOCKED: USER    
DOCKED: USER    (1) Final Intermolecular Energy     =  -12.74 kcal/mol
DOCKED: USER        vdW + Hbond + desolv Energy     =  -12.74 kcal/mol
DOCKED: USER        Electrostatic Energy            =   +0.00 kcal/mol
DOCKED: USER    (2) Final Total Internal Energy     =   -1.35 kcal/mol
DOCKED: USER    (3) Torsional Free Energy           =   +2.68 kcal/mol
DOCKED: USER    (4) Unbound System's Energy  [=(2)] =   -1.35 kcal/mol
DOCKED: USER    
DOCKED: USER    
DOCKED: USER    NEWDPF move ligand.pdbqt
DOCKED: USER    NEWDPF about 0.056000 -0.347000 0.144000
DOCKED: USER    NEWDPF tran0 24.955504 -14.218291 -0.722570
DOCKED: USER    NEWDPF quaternion0 0.198011 0.386452 -0.745996 -0.504912
DOCKED: USER    NEWDPF axisangle0 0.229400 0.447712 -0.864251 -119.348963
DOCKED: USER    NEWDPF quat0 0.229400 0.447712 -0.864251 -119.348963
DOCKED: USER    NEWDPF dihe0 -0.89 -87.37 -144.29 177.59 11.98 -30.23 -138.47 -71.14 31.86 
DOCKED: USER  keepresnum = 1 
DOCKED: USER  
DOCKED: REMARK  Name = 
DOCKED: REMARK  9 active torsions:
DOCKED: REMARK  status: ('A' for Active; 'I' for Inactive)
DOCKED: REMARK    1  A    between atoms: C_2  and  C_10
DOCKED: REMARK    2  A    between atoms: N_3  and  C_4
DOCKED: REMARK    3  A    between atoms: C_10  and  C_11
DOCKED: REMARK    4  A    between atoms: C_11  and  C_12
DOCKED: REMARK    5  A    between atoms: C_12  and  C_13
DOCKED: REMARK    6  A    between atoms: C_13  and  C_14
DOCKED: REMARK    7  A    between atoms: C_14  and  C_15
DOCKED: REMARK    8  A    between atoms: C_15  and  C_16
DOCKED: REMARK    9  A    between atoms: N_17  and  O_18
DOCKED: REMARK                            x       y       z     vdW  Elec       q    Type
DOCKED: REMARK                         _______ _______ _______ _____ _____    ______ ____
DOCKED: USER                              x       y       z     vdW  Elec       q    Type
DOCKED: USER                           _______ _______ _______ _____ _____    ______ ____
DOCKED: ROOT
DOCKED: ATOM      1  C   UNL     1      27.470 -14.961  -0.838 -0.28 -0.00    +0.000 C 
DOCKED: ENDROOT
DOCKED: BRANCH   1   3
DOCKED: ATOM      2  O   UNL     1      26.687 -13.342   0.727 -0.34 -0.00    +0.000 OA
DOCKED: ATOM      3  C   UNL     1      27.406 -14.359   0.533 -0.29 -0.00    +0.000 C 
DOCKED: ATOM      4  N   UNL     1      28.161 -14.939   1.609 -0.15 -0.00    +0.000 N 
DOCKED: ATOM      5  H   UNL     1      28.587 -15.813   1.456 -0.96 -0.00    +0.000 HD
DOCKED: BRANCH   4   6
DOCKED: ATOM      6  C   UNL     1      28.333 -14.321   2.894 -0.27 -0.00    +0.000 A 
DOCKED: ATOM      7  C   UNL     1      29.614 -14.075   3.424 -0.26 -0.00    +0.000 A 
DOCKED: ATOM      8  C   UNL     1      29.753 -13.490   4.687 -0.27 -0.00    +0.000 A 
DOCKED: ATOM      9  C   UNL     1      28.621 -13.160   5.436 -0.39 -0.00    +0.000 A 
DOCKED: ATOM     10  C   UNL     1      27.346 -13.423   4.928 -0.35 -0.00    +0.000 A 
DOCKED: ATOM     11  C   UNL     1      27.203 -14.008   3.667 -0.37 -0.00    +0.000 A 
DOCKED: ENDBRANCH   4   6
DOCKED: ENDBRANCH   1   3
DOCKED: BRANCH   1  12
DOCKED: ATOM     12  C   UNL     1      26.072 -15.015  -1.463 -0.39 -0.00    +0.000 C 
DOCKED: BRANCH  12  13
DOCKED: ATOM     13  C   UNL     1      25.936 -16.224  -2.400 -0.52 -0.00    +0.000 C 
DOCKED: BRANCH  13  14
DOCKED: ATOM     14  C   UNL     1      25.144 -17.376  -1.765 -0.63 -0.00    +0.000 C 
DOCKED: BRANCH  14  15
DOCKED: ATOM     15  C   UNL     1      23.924 -16.887  -0.963 -0.63 -0.00    +0.000 C 
DOCKED: BRANCH  15  16
DOCKED: ATOM     16  C   UNL     1      23.203 -18.036  -0.247 -0.78 -0.00    +0.000 C 
DOCKED: BRANCH  16  17
DOCKED: ATOM     17  C   UNL     1      21.824 -18.257  -0.800 -0.83 -0.00    +0.000 C 
DOCKED: ATOM     18  N   UNL     1      21.469 -19.514  -1.380 -0.69 -0.00    +0.000 N 
DOCKED: ATOM     19  O   UNL     1      20.968 -17.335  -0.725 -1.94 -0.00    +0.000 OA
DOCKED: ATOM     20  H   UNL     1      22.144 -20.229  -1.448 -0.33 -0.00    +0.000 HD
DOCKED: BRANCH  18  21
DOCKED: ATOM     21  O   UNL     1      20.213 -19.733  -1.837 -1.85 -0.00    +0.000 OA
DOCKED: ATOM     22  H   UNL     1      19.672 -18.943  -1.685 -0.22 -0.00    +0.000 HD
DOCKED: ENDBRANCH  18  21
DOCKED: ENDBRANCH  16  17
DOCKED: ENDBRANCH  15  16
DOCKED: ENDBRANCH  14  15
DOCKED: ENDBRANCH  13  14
DOCKED: ENDBRANCH  12  13
DOCKED: ENDBRANCH   1  12
DOCKED: TORSDOF 9
DOCKED: TER
DOCKED: ENDMDL
________________________________________________________________________________


	BEGINNING GENETIC ALGORITHM DOCKING 3 of 100
Run: 3 Seed: 1585406699 1271734116 [ Run 3 of 100 GA/GALS ]
Beginning LAMARCKIAN GENETIC ALGORITHM (LGA), with a maximum of 2500000 energy evaluations.

Final-Value: -13.733


	FINAL GENETIC ALGORITHM DOCKED STATE
	_______________________________________________


Detailed state:  trans 24.897 -17.123 -1.588 quatxyzw 0.157553 0.232122 0.804911 0.522891 center 0.056 -0.347 0.144 ntor 9 0.1150 -79.7654 139.7186 -7.2761 -36.2719 -39.5778 4.5446 7.8971 -178.1704
State:	 24.897 -17.123  -1.588   0.185  0.272  0.944 116.947      0.11  -79.77  139.72   -7.28  -36.27  -39.58    4.54    7.90 -178.17

DOCKED: MODEL        3
DOCKED: USER    Run = 3
DOCKED: USER    DPF = ligand_dock.biased.dpf
DOCKED: USER  
DOCKED: USER    Estimated Free Energy of Binding    =   -9.50 kcal/mol  [=(1)+(2)+(3)-(4)]
DOCKED: USER    Estimated Inhibition Constant, Ki   =  109.38 nM (nanomolar)  [Temperature = 298.15 K]
DOCKED: USER    
DOCKED: USER    (1) Final Intermolecular Energy     =  -12.18 kcal/mol
DOCKED: USER        vdW + Hbond + desolv Energy     =  -12.18 kcal/mol
DOCKED: USER        Electrostatic Energy            =   +0.00 kcal/mol
DOCKED: USER    (2) Final Total Internal Energy     =   -1.55 kcal/mol
DOCKED: USER    (3) Torsional Free Energy           =   +2.68 kcal/mol
DOCKED: USER    (4) Unbound System's Energy  [=(2)] =   -1.55 kcal/mol
DOCKED: USER    
DOCKED: USER    
DOCKED: USER    NEWDPF move ligand.pdbqt
DOCKED: USER    NEWDPF about 0.056000 -0.347000 0.144000
DOCKED: USER    NEWDPF tran0 24.897224 -17.122752 -1.587871
DOCKED: USER    NEWDPF quaternion0 0.157553 0.232122 0.804911 0.522891
DOCKED: USER    NEWDPF axisangle0 0.184835 0.272316 0.944288 116.947245
DOCKED: USER    NEWDPF quat0 0.184835 0.272316 0.944288 116.947245
DOCKED: USER    NEWDPF dihe0 0.11 -79.77 139.72 -7.28 -36.27 -39.58 4.54 7.90 -178.17 
DOCKED: USER  keepresnum = 1 
DOCKED: USER  
DOCKED: REMARK  Name = 
DOCKED: REMARK  9 active torsions:
DOCKED: REMARK  status: ('A' for Active; 'I' for Inactive)
DOCKED: REMARK    1  A    between atoms: C_2  and  C_10
DOCKED: REMARK    2  A    between atoms: N_3  and  C_4
DOCKED: REMARK    3  A    between atoms: C_10  and  C_11
DOCKED: REMARK    4  A    between atoms: C_11  and  C_12
DOCKED: REMARK    5  A    between atoms: C_12  and  C_13
DOCKED: REMARK    6  A    between atoms: C_13  and  C_14
DOCKED: REMARK    7  A    between atoms: C_14  and  C_15
DOCKED: REMARK    8  A    between atoms: C_15  and  C_16
DOCKED: REMARK    9  A    between atoms: N_17  and  O_18
DOCKED: REMARK                            x       y       z     vdW  Elec       q    Type
DOCKED: REMARK                         _______ _______ _______ _____ _____    ______ ____
DOCKED: USER                              x       y       z     vdW  Elec       q    Type
DOCKED: USER                           _______ _______ _______ _____ _____    ______ ____
DOCKED: ROOT
DOCKED: ATOM      1  C   UNL     1      27.366 -17.182  -0.700 -0.47 -0.00    +0.000 C 
DOCKED: ENDROOT
DOCKED: BRANCH   1   3
DOCKED: ATOM      2  O   UNL     1      27.161 -14.841  -0.296 -0.30 -0.00    +0.000 OA
DOCKED: ATOM      3  C   UNL     1      27.254 -15.759  -1.156 -0.35 -0.00    +0.000 C 
DOCKED: ATOM      4  N   UNL     1      27.248 -15.451  -2.559 -0.28 -0.00    +0.000 N 
DOCKED: ATOM      5  H   UNL     1      27.473 -16.172  -3.191 -0.01 -0.00    +0.000 HD
DOCKED: BRANCH   4   6
DOCKED: ATOM      6  C   UNL     1      26.935 -14.156  -3.097 -0.27 -0.00    +0.000 A 
DOCKED: ATOM      7  C   UNL     1      25.815 -13.958  -3.927 -0.44 -0.00    +0.000 A 
DOCKED: ATOM      8  C   UNL     1      25.544 -12.691  -4.453 -0.31 -0.00    +0.000 A 
DOCKED: ATOM      9  C   UNL     1      26.392 -11.618  -4.171 -0.22 -0.00    +0.000 A 
DOCKED: ATOM     10  C   UNL     1      27.520 -11.811  -3.369 -0.12 -0.00    +0.000 A 
DOCKED: ATOM     11  C   UNL     1      27.794 -13.076  -2.841 -0.13 -0.00    +0.000 A 
DOCKED: ENDBRANCH   4   6
DOCKED: ENDBRANCH   1   3
DOCKED: BRANCH   1  12
DOCKED: ATOM     12  C   UNL     1      26.008 -17.884  -0.804 -0.62 -0.00    +0.000 C 
DOCKED: BRANCH  12  13
DOCKED: ATOM     13  C   UNL     1      24.944 -16.937  -1.378 -0.65 -0.00    +0.000 C 
DOCKED: BRANCH  13  14
DOCKED: ATOM     14  C   UNL     1      23.555 -17.588  -1.457 -0.68 -0.00    +0.000 C 
DOCKED: BRANCH  14  15
DOCKED: ATOM     15  C   UNL     1      23.321 -18.621  -0.340 -0.81 -0.00    +0.000 C 
DOCKED: BRANCH  15  16
DOCKED: ATOM     16  C   UNL     1      21.930 -18.484   0.293 -0.68 -0.00    +0.000 C 
DOCKED: BRANCH  16  17
DOCKED: ATOM     17  C   UNL     1      20.837 -18.708  -0.712 -0.84 -0.00    +0.000 C 
DOCKED: ATOM     18  N   UNL     1      20.920 -19.788  -1.645 -0.67 -0.00    +0.000 N 
DOCKED: ATOM     19  O   UNL     1      19.827 -17.955  -0.711 -1.81 -0.00    +0.000 OA
DOCKED: ATOM     20  H   UNL     1      21.716 -20.368  -1.650 -0.37 -0.00    +0.000 HD
DOCKED: BRANCH  18  21
DOCKED: ATOM     21  O   UNL     1      19.915 -20.022  -2.521 -1.68 -0.00    +0.000 OA
DOCKED: ATOM     22  H   UNL     1      19.212 -19.366  -2.388 -0.48 -0.00    +0.000 HD
DOCKED: ENDBRANCH  18  21
DOCKED: ENDBRANCH  16  17
DOCKED: ENDBRANCH  15  16
DOCKED: ENDBRANCH  14  15
DOCKED: ENDBRANCH  13  14
DOCKED: ENDBRANCH  12  13
DOCKED: ENDBRANCH   1  12
DOCKED: TORSDOF 9
DOCKED: TER
DOCKED: ENDMDL
________________________________________________________________________________


	BEGINNING GENETIC ALGORITHM DOCKING 4 of 100
Run: 4 Seed: 1804141920 2068040748 [ Run 4 of 100 GA/GALS ]
Beginning LAMARCKIAN GENETIC ALGORITHM (LGA), with a maximum of 2500000 energy evaluations.

Final-Value: -11.727


	FINAL GENETIC ALGORITHM DOCKED STATE
	_______________________________________________


Detailed state:  trans 28.209 -16.355 -2.552 quatxyzw 0.569137 -0.078294 -0.121299 -0.809469 center 0.056 -0.347 0.144 ntor 9 81.2088 10.5253 -171.2889 -154.3951 -102.0140 57.1319 179.7614 -1.5682 -133.7345
State:	 28.209 -16.355  -2.552   0.969 -0.133 -0.207 -71.912     81.21   10.53 -171.29 -154.40 -102.01   57.13  179.76   -1.57 -133.73

DOCKED: MODEL        4
DOCKED: USER    Run = 4
DOCKED: USER    DPF = ligand_dock.biased.dpf
DOCKED: USER  
DOCKED: USER    Estimated Free Energy of Binding    =   -6.85 kcal/mol  [=(1)+(2)+(3)-(4)]
DOCKED: USER    Estimated Inhibition Constant, Ki   =    9.56 uM (micromolar)  [Temperature = 298.15 K]
DOCKED: USER    
DOCKED: USER    (1) Final Intermolecular Energy     =   -9.53 kcal/mol
DOCKED: USER        vdW + Hbond + desolv Energy     =   -9.53 kcal/mol
DOCKED: USER        Electrostatic Energy            =   +0.00 kcal/mol
DOCKED: USER    (2) Final Total Internal Energy     =   -2.19 kcal/mol
DOCKED: USER    (3) Torsional Free Energy           =   +2.68 kcal/mol
DOCKED: USER    (4) Unbound System's Energy  [=(2)] =   -2.19 kcal/mol
DOCKED: USER    
DOCKED: USER    
DOCKED: USER    NEWDPF move ligand.pdbqt
DOCKED: USER    NEWDPF about 0.056000 -0.347000 0.144000
DOCKED: USER    NEWDPF tran0 28.209091 -16.354948 -2.551547
DOCKED: USER    NEWDPF quaternion0 0.569137 -0.078294 -0.121299 -0.809469
DOCKED: USER    NEWDPF axisangle0 0.969300 -0.133344 -0.206584 -71.911911
DOCKED: USER    NEWDPF quat0 0.969300 -0.133344 -0.206584 -71.911911
DOCKED: USER    NEWDPF dihe0 81.21 10.53 -171.29 -154.40 -102.01 57.13 179.76 -1.57 -133.73 
DOCKED: USER  keepresnum = 1 
DOCKED: USER  
DOCKED: REMARK  Name = 
DOCKED: REMARK  9 active torsions:
DOCKED: REMARK  status: ('A' for Active; 'I' for Inactive)
DOCKED: REMARK    1  A    between atoms: C_2  and  C_10
DOCKED: REMARK    2  A    between atoms: N_3  and  C_4
DOCKED: REMARK    3  A    between atoms: C_10  and  C_11
DOCKED: REMARK    4  A    between atoms: C_11  and  C_12
DOCKED: REMARK    5  A    between atoms: C_12  and  C_13
DOCKED: REMARK    6  A    between atoms: C_13  and  C_14
DOCKED: REMARK    7  A    between atoms: C_14  and  C_15
DOCKED: REMARK    8  A    between atoms: C_15  and  C_16
DOCKED: REMARK    9  A    between atoms: N_17  and  O_18
DOCKED: REMARK                            x       y       z     vdW  Elec       q    Type
DOCKED: REMARK                         _______ _______ _______ _____ _____    ______ ____
DOCKED: USER                              x       y       z     vdW  Elec       q    Type
DOCKED: USER                           _______ _______ _______ _____ _____    ______ ____
DOCKED: ROOT
DOCKED: ATOM      1  C   UNL     1      27.788 -16.084   0.025 -0.33 -0.00    +0.000 C 
DOCKED: ENDROOT
DOCKED: BRANCH   1   3
DOCKED: ATOM      2  O   UNL     1      25.785 -15.323  -1.022 -0.44 -0.00    +0.000 OA
DOCKED: ATOM      3  C   UNL     1      26.391 -16.287  -0.480 -0.45 -0.00    +0.000 C 
DOCKED: ATOM      4  N   UNL     1      25.754 -17.567  -0.340 -0.59 -0.00    +0.000 N 
DOCKED: ATOM      5  H   UNL     1      26.307 -18.329  -0.051 -0.06 -0.00    +0.000 HD
DOCKED: BRANCH   4   6
DOCKED: ATOM      6  C   UNL     1      24.360 -17.803  -0.595 -0.66 -0.00    +0.000 A 
DOCKED: ATOM      7  C   UNL     1      23.407 -16.774  -0.471 -0.29 -0.00    +0.000 A 
DOCKED: ATOM      8  C   UNL     1      22.054 -17.037  -0.706 -0.55 -0.00    +0.000 A 
DOCKED: ATOM      9  C   UNL     1      21.638 -18.325  -1.051 -0.65 -0.00    +0.000 A 
DOCKED: ATOM     10  C   UNL     1      22.574 -19.358  -1.151 -0.60 -0.00    +0.000 A 
DOCKED: ATOM     11  C   UNL     1      23.928 -19.100  -0.917 -0.55 -0.00    +0.000 A 
DOCKED: ENDBRANCH   4   6
DOCKED: ENDBRANCH   1   3
DOCKED: BRANCH   1  12
DOCKED: ATOM     12  C   UNL     1      28.798 -16.277  -1.111 -0.27 -0.00    +0.000 C 
DOCKED: BRANCH  12  13
DOCKED: ATOM     13  C   UNL     1      28.349 -15.532  -2.377 -0.24 -0.00    +0.000 C 
DOCKED: BRANCH  13  14
DOCKED: ATOM     14  C   UNL     1      29.419 -15.541  -3.479 -0.19 -0.00    +0.000 C 
DOCKED: BRANCH  14  15
DOCKED: ATOM     15  C   UNL     1      28.872 -16.032  -4.831 -0.32 -0.00    +0.000 C 
DOCKED: BRANCH  15  16
DOCKED: ATOM     16  C   UNL     1      27.911 -15.021  -5.469 -0.42 -0.00    +0.000 C 
DOCKED: BRANCH  16  17
DOCKED: ATOM     17  C   UNL     1      26.506 -15.199  -4.970 -0.51 -0.00    +0.000 C 
DOCKED: ATOM     18  N   UNL     1      26.034 -14.447  -3.850 -0.45 -0.00    +0.000 N 
DOCKED: ATOM     19  O   UNL     1      25.731 -15.995  -5.564 -1.07 +0.00    +0.000 OA
DOCKED: ATOM     20  H   UNL     1      26.645 -13.834  -3.381 -0.00 -0.00    +0.000 HD
DOCKED: BRANCH  18  21
DOCKED: ATOM     21  O   UNL     1      24.753 -14.570  -3.427 -0.84 -0.00    +0.000 OA
DOCKED: ATOM     22  H   UNL     1      24.671 -15.362  -2.874 -0.04 -0.00    +0.000 HD
DOCKED: ENDBRANCH  18  21
DOCKED: ENDBRANCH  16  17
DOCKED: ENDBRANCH  15  16
DOCKED: ENDBRANCH  14  15
DOCKED: ENDBRANCH  13  14
DOCKED: ENDBRANCH  12  13
DOCKED: ENDBRANCH   1  12
DOCKED: TORSDOF 9
DOCKED: TER
DOCKED: ENDMDL
________________________________________________________________________________


	BEGINNING GENETIC ALGORITHM DOCKING 5 of 100
Run: 5 Seed: 535408719 558712211 [ Run 5 of 100 GA/GALS ]
Beginning LAMARCKIAN GENETIC ALGORITHM (LGA), with a maximum of 2500000 energy evaluations.

Final-Value: -12.690


	FINAL GENETIC ALGORITHM DOCKED STATE
	_______________________________________________


Detailed state:  trans 24.982 -16.237 -2.878 quatxyzw 0.335556 0.673729 0.639389 -0.157076 center 0.056 -0.347 0.144 ntor 9 9.6469 22.0416 41.5850 -177.1531 -157.4489 115.6070 132.5849 171.5326 -79.8868
State:	 24.982 -16.237  -2.878   0.340  0.682  0.647 -161.926      9.65   22.04   41.59 -177.15 -157.45  115.61  132.58  171.53  -79.89

DOCKED: MODEL        5
DOCKED: USER    Run = 5
DOCKED: USER    DPF = ligand_dock.biased.dpf
DOCKED: USER  
DOCKED: USER    Estimated Free Energy of Binding    =   -8.61 kcal/mol  [=(1)+(2)+(3)-(4)]
DOCKED: USER    Estimated Inhibition Constant, Ki   =  491.60 nM (nanomolar)  [Temperature = 298.15 K]
DOCKED: USER    
DOCKED: USER    (1) Final Intermolecular Energy     =  -11.29 kcal/mol
DOCKED: USER        vdW + Hbond + desolv Energy     =  -11.29 kcal/mol
DOCKED: USER        Electrostatic Energy            =   +0.00 kcal/mol
DOCKED: USER    (2) Final Total Internal Energy     =   -1.40 kcal/mol
DOCKED: USER    (3) Torsional Free Energy           =   +2.68 kcal/mol
DOCKED: USER    (4) Unbound System's Energy  [=(2)] =   -1.40 kcal/mol
DOCKED: USER    
DOCKED: USER    
DOCKED: USER    NEWDPF move ligand.pdbqt
DOCKED: USER    NEWDPF about 0.056000 -0.347000 0.144000
DOCKED: USER    NEWDPF tran0 24.981586 -16.237338 -2.877683
DOCKED: USER    NEWDPF quaternion0 0.335556 0.673729 0.639389 -0.157076
DOCKED: USER    NEWDPF axisangle0 0.339774 0.682198 0.647426 -161.925561
DOCKED: USER    NEWDPF quat0 0.339774 0.682198 0.647426 -161.925561
DOCKED: USER    NEWDPF dihe0 9.65 22.04 41.59 -177.15 -157.45 115.61 132.58 171.53 -79.89 
DOCKED: USER  keepresnum = 1 
DOCKED: USER  
DOCKED: REMARK  Name = 
DOCKED: REMARK  9 active torsions:
DOCKED: REMARK  status: ('A' for Active; 'I' for Inactive)
DOCKED: REMARK    1  A    between atoms: C_2  and  C_10
DOCKED: REMARK    2  A    between atoms: N_3  and  C_4
DOCKED: REMARK    3  A    between atoms: C_10  and  C_11
DOCKED: REMARK    4  A    between atoms: C_11  and  C_12
DOCKED: REMARK    5  A    between atoms: C_12  and  C_13
DOCKED: REMARK    6  A    between atoms: C_13  and  C_14
DOCKED: REMARK    7  A    between atoms: C_14  and  C_15
DOCKED: REMARK    8  A    between atoms: C_15  and  C_16
DOCKED: REMARK    9  A    between atoms: N_17  and  O_18
DOCKED: REMARK                            x       y       z     vdW  Elec       q    Type
DOCKED: REMARK                         _______ _______ _______ _____ _____    ______ ____
DOCKED: USER                              x       y       z     vdW  Elec       q    Type
DOCKED: USER                           _______ _______ _______ _____ _____    ______ ____
DOCKED: ROOT
DOCKED: ATOM      1  C   UNL     1      26.447 -16.114  -0.704 -0.46 -0.00    +0.000 C 
DOCKED: ENDROOT
DOCKED: BRANCH   1   3
DOCKED: ATOM      2  O   UNL     1      28.071 -17.693  -1.449 -0.35 -0.00    +0.000 OA
DOCKED: ATOM      3  C   UNL     1      27.443 -16.629  -1.699 -0.39 -0.00    +0.000 C 
DOCKED: ATOM      4  N   UNL     1      27.677 -15.911  -2.921 -0.29 -0.00    +0.000 N 
DOCKED: ATOM      5  H   UNL     1      27.064 -15.173  -3.148 -0.00 -0.00    +0.000 HD
DOCKED: BRANCH   4   6
DOCKED: ATOM      6  C   UNL     1      28.749 -16.201  -3.831 -0.20 -0.00    +0.000 A 
DOCKED: ATOM      7  C   UNL     1      29.836 -17.011  -3.451 -0.20 -0.00    +0.000 A 
DOCKED: ATOM      8  C   UNL     1      30.877 -17.261  -4.351 -0.18 -0.00    +0.000 A 
DOCKED: ATOM      9  C   UNL     1      30.851 -16.695  -5.628 -0.22 -0.00    +0.000 A 
DOCKED: ATOM     10  C   UNL     1      29.788 -15.870  -6.005 -0.31 -0.00    +0.000 A 
DOCKED: ATOM     11  C   UNL     1      28.746 -15.617  -5.109 -0.32 -0.00    +0.000 A 
DOCKED: ENDBRANCH   4   6
DOCKED: ENDBRANCH   1   3
DOCKED: BRANCH   1  12
DOCKED: ATOM     12  C   UNL     1      25.131 -15.757  -1.403 -0.43 -0.00    +0.000 C 
DOCKED: BRANCH  12  13
DOCKED: ATOM     13  C   UNL     1      24.095 -16.877  -1.227 -0.64 -0.00    +0.000 C 
DOCKED: BRANCH  13  14
DOCKED: ATOM     14  C   UNL     1      24.721 -18.187  -0.728 -0.75 -0.00    +0.000 C 
DOCKED: BRANCH  14  15
DOCKED: ATOM     15  C   UNL     1      23.716 -19.353  -0.705 -0.54 -0.00    +0.000 C 
DOCKED: BRANCH  15  16
DOCKED: ATOM     16  C   UNL     1      22.450 -19.043  -1.513 -0.65 -0.00    +0.000 C 
DOCKED: BRANCH  16  17
DOCKED: ATOM     17  C   UNL     1      21.262 -18.824  -0.622 -0.86 -0.00    +0.000 C 
DOCKED: ATOM     18  N   UNL     1      20.889 -19.809   0.344 -0.64 -0.00    +0.000 N 
DOCKED: ATOM     19  O   UNL     1      20.608 -17.750  -0.709 -2.25 -0.00    +0.000 OA
DOCKED: ATOM     20  H   UNL     1      21.394 -20.653   0.401 -0.59 -0.00    +0.000 HD
DOCKED: BRANCH  18  21
DOCKED: ATOM     21  O   UNL     1      19.846 -19.595   1.181 -0.75 -0.00    +0.000 OA
DOCKED: ATOM     22  H   UNL     1      19.365 -18.801   0.900 -0.27 -0.00    +0.000 HD
DOCKED: ENDBRANCH  18  21
DOCKED: ENDBRANCH  16  17
DOCKED: ENDBRANCH  15  16
DOCKED: ENDBRANCH  14  15
DOCKED: ENDBRANCH  13  14
DOCKED: ENDBRANCH  12  13
DOCKED: ENDBRANCH   1  12
DOCKED: TORSDOF 9
DOCKED: TER
DOCKED: ENDMDL
________________________________________________________________________________


	BEGINNING GENETIC ALGORITHM DOCKING 6 of 100
Run: 6 Seed: 608038945 1797816117 [ Run 6 of 100 GA/GALS ]
Beginning LAMARCKIAN GENETIC ALGORITHM (LGA), with a maximum of 2500000 energy evaluations.

Final-Value: -13.212


	FINAL GENETIC ALGORITHM DOCKED STATE
	_______________________________________________


Detailed state:  trans 27.250 -16.709 -0.951 quatxyzw -0.121777 0.878241 -0.143877 0.439502 center 0.056 -0.347 0.144 ntor 9 68.6779 122.4912 -170.5861 64.2617 -83.6622 135.5026 1.6176 134.8337 127.2267
State:	 27.250 -16.709  -0.951  -0.136  0.978 -0.160 127.856     68.68  122.49 -170.59   64.26  -83.66  135.50    1.62  134.83  127.23

DOCKED: MODEL        6
DOCKED: USER    Run = 6
DOCKED: USER    DPF = ligand_dock.biased.dpf
DOCKED: USER  
DOCKED: USER    Estimated Free Energy of Binding    =   -9.48 kcal/mol  [=(1)+(2)+(3)-(4)]
DOCKED: USER    Estimated Inhibition Constant, Ki   =  112.37 nM (nanomolar)  [Temperature = 298.15 K]
DOCKED: USER    
DOCKED: USER    (1) Final Intermolecular Energy     =  -12.17 kcal/mol
DOCKED: USER        vdW + Hbond + desolv Energy     =  -12.17 kcal/mol
DOCKED: USER        Electrostatic Energy            =   +0.00 kcal/mol
DOCKED: USER    (2) Final Total Internal Energy     =   -1.05 kcal/mol
DOCKED: USER    (3) Torsional Free Energy           =   +2.68 kcal/mol
DOCKED: USER    (4) Unbound System's Energy  [=(2)] =   -1.05 kcal/mol
DOCKED: USER    
DOCKED: USER    
DOCKED: USER    NEWDPF move ligand.pdbqt
DOCKED: USER    NEWDPF about 0.056000 -0.347000 0.144000
DOCKED: USER    NEWDPF tran0 27.250173 -16.708791 -0.950540
DOCKED: USER    NEWDPF quaternion0 -0.121777 0.878241 -0.143877 0.439502
DOCKED: USER    NEWDPF axisangle0 -0.135573 0.977734 -0.160176 127.855728
DOCKED: USER    NEWDPF quat0 -0.135573 0.977734 -0.160176 127.855728
DOCKED: USER    NEWDPF dihe0 68.68 122.49 -170.59 64.26 -83.66 135.50 1.62 134.83 127.23 
DOCKED: USER  keepresnum = 1 
DOCKED: USER  
DOCKED: REMARK  Name = 
DOCKED: REMARK  9 active torsions:
DOCKED: REMARK  status: ('A' for Active; 'I' for Inactive)
DOCKED: REMARK    1  A    between atoms: C_2  and  C_10
DOCKED: REMARK    2  A    between atoms: N_3  and  C_4
DOCKED: REMARK    3  A    between atoms: C_10  and  C_11
DOCKED: REMARK    4  A    between atoms: C_11  and  C_12
DOCKED: REMARK    5  A    between atoms: C_12  and  C_13
DOCKED: REMARK    6  A    between atoms: C_13  and  C_14
DOCKED: REMARK    7  A    between atoms: C_14  and  C_15
DOCKED: REMARK    8  A    between atoms: C_15  and  C_16
DOCKED: REMARK    9  A    between atoms: N_17  and  O_18
DOCKED: REMARK                            x       y       z     vdW  Elec       q    Type
DOCKED: REMARK                         _______ _______ _______ _____ _____    ______ ____
DOCKED: USER                              x       y       z     vdW  Elec       q    Type
DOCKED: USER                           _______ _______ _______ _____ _____    ______ ____
DOCKED: ROOT
DOCKED: ATOM      1  C   UNL     1      26.161 -14.642  -2.146 -0.38 -0.00    +0.000 C 
DOCKED: ENDROOT
DOCKED: BRANCH   1   3
DOCKED: ATOM      2  O   UNL     1      26.186 -15.979  -4.121 -0.60 -0.00    +0.000 OA
DOCKED: ATOM      3  C   UNL     1      26.860 -15.308  -3.293 -0.42 -0.00    +0.000 C 
DOCKED: ATOM      4  N   UNL     1      28.284 -15.184  -3.438 -0.22 -0.00    +0.000 N 
DOCKED: ATOM      5  H   UNL     1      28.752 -14.535  -2.864 +0.01 -0.00    +0.000 HD
DOCKED: BRANCH   4   6
DOCKED: ATOM      6  C   UNL     1      29.067 -15.949  -4.368 -0.26 -0.00    +0.000 A 
DOCKED: ATOM      7  C   UNL     1      29.232 -15.535  -5.704 -0.32 -0.00    +0.000 A 
DOCKED: ATOM      8  C   UNL     1      29.983 -16.309  -6.593 -0.29 -0.00    +0.000 A 
DOCKED: ATOM      9  C   UNL     1      30.562 -17.506  -6.166 -0.30 -0.00    +0.000 A 
DOCKED: ATOM     10  C   UNL     1      30.382 -17.938  -4.849 -0.27 -0.00    +0.000 A 
DOCKED: ATOM     11  C   UNL     1      29.632 -17.167  -3.957 -0.19 -0.00    +0.000 A 
DOCKED: ENDBRANCH   4   6
DOCKED: ENDBRANCH   1   3
DOCKED: BRANCH   1  12
DOCKED: ATOM     12  C   UNL     1      26.258 -15.509  -0.887 -0.42 -0.00    +0.000 C 
DOCKED: BRANCH  12  13
DOCKED: ATOM     13  C   UNL     1      25.765 -16.937  -1.165 -0.59 -0.00    +0.000 C 
DOCKED: BRANCH  13  14
DOCKED: ATOM     14  C   UNL     1      24.381 -16.964  -1.830 -0.61 -0.00    +0.000 C 
DOCKED: BRANCH  14  15
DOCKED: ATOM     15  C   UNL     1      23.608 -18.262  -1.537 -0.74 -0.00    +0.000 C 
DOCKED: BRANCH  15  16
DOCKED: ATOM     16  C   UNL     1      22.775 -18.163  -0.252 -0.81 -0.00    +0.000 C 
DOCKED: BRANCH  16  17
DOCKED: ATOM     17  C   UNL     1      21.374 -18.664  -0.457 -0.84 -0.00    +0.000 C 
DOCKED: ATOM     18  N   UNL     1      21.040 -20.022  -0.164 -0.65 -0.00    +0.000 N 
DOCKED: ATOM     19  O   UNL     1      20.483 -17.871  -0.864 -2.25 -0.00    +0.000 OA
DOCKED: ATOM     20  H   UNL     1      21.742 -20.642   0.142 -0.57 -0.00    +0.000 HD
DOCKED: BRANCH  18  21
DOCKED: ATOM     21  O   UNL     1      19.768 -20.465  -0.303 -0.88 -0.00    +0.000 OA
DOCKED: ATOM     22  H   UNL     1      19.534 -20.483  -1.244 -0.58 -0.00    +0.000 HD
DOCKED: ENDBRANCH  18  21
DOCKED: ENDBRANCH  16  17
DOCKED: ENDBRANCH  15  16
DOCKED: ENDBRANCH  14  15
DOCKED: ENDBRANCH  13  14
DOCKED: ENDBRANCH  12  13
DOCKED: ENDBRANCH   1  12
DOCKED: TORSDOF 9
DOCKED: TER
DOCKED: ENDMDL
________________________________________________________________________________


	BEGINNING GENETIC ALGORITHM DOCKING 7 of 100
Run: 7 Seed: 1550969359 1321912968 [ Run 7 of 100 GA/GALS ]
Beginning LAMARCKIAN GENETIC ALGORITHM (LGA), with a maximum of 2500000 energy evaluations.

Final-Value: -13.464


	FINAL GENETIC ALGORITHM DOCKED STATE
	_______________________________________________


Detailed state:  trans 25.040 -16.704 -3.534 quatxyzw 0.188020 0.938871 0.255883 0.133016 center 0.056 -0.347 0.144 ntor 9 24.5249 103.0623 -55.7613 -163.5030 -178.0445 60.4620 -47.1960 -90.2073 -121.7723
State:	 25.040 -16.704  -3.534   0.190  0.947  0.258 164.712     24.52  103.06  -55.76 -163.50 -178.04   60.46  -47.20  -90.21 -121.77

DOCKED: MODEL        7
DOCKED: USER    Run = 7
DOCKED: USER    DPF = ligand_dock.biased.dpf
DOCKED: USER  
DOCKED: USER    Estimated Free Energy of Binding    =   -9.30 kcal/mol  [=(1)+(2)+(3)-(4)]
DOCKED: USER    Estimated Inhibition Constant, Ki   =  153.62 nM (nanomolar)  [Temperature = 298.15 K]
DOCKED: USER    
DOCKED: USER    (1) Final Intermolecular Energy     =  -11.98 kcal/mol
DOCKED: USER        vdW + Hbond + desolv Energy     =  -11.98 kcal/mol
DOCKED: USER        Electrostatic Energy            =   +0.00 kcal/mol
DOCKED: USER    (2) Final Total Internal Energy     =   -1.48 kcal/mol
DOCKED: USER    (3) Torsional Free Energy           =   +2.68 kcal/mol
DOCKED: USER    (4) Unbound System's Energy  [=(2)] =   -1.48 kcal/mol
DOCKED: USER    
DOCKED: USER    
DOCKED: USER    NEWDPF move ligand.pdbqt
DOCKED: USER    NEWDPF about 0.056000 -0.347000 0.144000
DOCKED: USER    NEWDPF tran0 25.039874 -16.704484 -3.533583
DOCKED: USER    NEWDPF quaternion0 0.188020 0.938871 0.255883 0.133016
DOCKED: USER    NEWDPF axisangle0 0.189706 0.947289 0.258177 164.712181
DOCKED: USER    NEWDPF quat0 0.189706 0.947289 0.258177 164.712181
DOCKED: USER    NEWDPF dihe0 24.52 103.06 -55.76 -163.50 -178.04 60.46 -47.20 -90.21 -121.77 
DOCKED: USER  keepresnum = 1 
DOCKED: USER  
DOCKED: REMARK  Name = 
DOCKED: REMARK  9 active torsions:
DOCKED: REMARK  status: ('A' for Active; 'I' for Inactive)
DOCKED: REMARK    1  A    between atoms: C_2  and  C_10
DOCKED: REMARK    2  A    between atoms: N_3  and  C_4
DOCKED: REMARK    3  A    between atoms: C_10  and  C_11
DOCKED: REMARK    4  A    between atoms: C_11  and  C_12
DOCKED: REMARK    5  A    between atoms: C_12  and  C_13
DOCKED: REMARK    6  A    between atoms: C_13  and  C_14
DOCKED: REMARK    7  A    between atoms: C_14  and  C_15
DOCKED: REMARK    8  A    between atoms: C_15  and  C_16
DOCKED: REMARK    9  A    between atoms: N_17  and  O_18
DOCKED: REMARK                            x       y       z     vdW  Elec       q    Type
DOCKED: REMARK                         _______ _______ _______ _____ _____    ______ ____
DOCKED: USER                              x       y       z     vdW  Elec       q    Type
DOCKED: USER                           _______ _______ _______ _____ _____    ______ ____
DOCKED: ROOT
DOCKED: ATOM      1  C   UNL     1      26.420 -14.488  -3.268 -0.42 -0.00    +0.000 C 
DOCKED: ENDROOT
DOCKED: BRANCH   1   3
DOCKED: ATOM      2  O   UNL     1      26.628 -15.595  -5.370 -1.18 +0.00    +0.000 OA
DOCKED: ATOM      3  C   UNL     1      27.210 -15.200  -4.324 -0.45 -0.00    +0.000 C 
DOCKED: ATOM      4  N   UNL     1      28.616 -15.430  -4.138 -0.26 -0.00    +0.000 N 
DOCKED: ATOM      5  H   UNL     1      29.062 -14.979  -3.384 +0.00 -0.00    +0.000 HD
DOCKED: BRANCH   4   6
DOCKED: ATOM      6  C   UNL     1      29.410 -16.279  -4.981 -0.28 -0.00    +0.000 A 
DOCKED: ATOM      7  C   UNL     1      29.651 -15.955  -6.330 -0.32 -0.00    +0.000 A 
DOCKED: ATOM      8  C   UNL     1      30.412 -16.809  -7.135 -0.26 -0.00    +0.000 A 
DOCKED: ATOM      9  C   UNL     1      30.925 -17.997  -6.608 -0.30 -0.00    +0.000 A 
DOCKED: ATOM     10  C   UNL     1      30.669 -18.339  -5.278 -0.28 -0.00    +0.000 A 
DOCKED: ATOM     11  C   UNL     1      29.909 -17.488  -4.470 -0.21 -0.00    +0.000 A 
DOCKED: ENDBRANCH   4   6
DOCKED: ENDBRANCH   1   3
DOCKED: BRANCH   1  12
DOCKED: ATOM     12  C   UNL     1      25.137 -15.263  -2.950 -0.48 -0.00    +0.000 C 
DOCKED: BRANCH  12  13
DOCKED: ATOM     13  C   UNL     1      25.460 -16.692  -2.487 -0.54 -0.00    +0.000 C 
DOCKED: BRANCH  13  14
DOCKED: ATOM     14  C   UNL     1      25.798 -16.766  -0.991 -0.57 -0.00    +0.000 C 
DOCKED: BRANCH  14  15
DOCKED: ATOM     15  C   UNL     1      25.027 -17.882  -0.264 -0.69 -0.00    +0.000 C 
DOCKED: BRANCH  15  16
DOCKED: ATOM     16  C   UNL     1      23.999 -18.565  -1.176 -0.77 -0.00    +0.000 C 
DOCKED: BRANCH  16  17
DOCKED: ATOM     17  C   UNL     1      22.632 -17.965  -1.021 -0.77 -0.00    +0.000 C 
DOCKED: ATOM     18  N   UNL     1      21.464 -18.753  -1.259 -0.72 -0.00    +0.000 N 
DOCKED: ATOM     19  O   UNL     1      22.517 -16.767  -0.649 -0.80 -0.00    +0.000 OA
DOCKED: ATOM     20  H   UNL     1      21.557 -19.686  -1.561 -0.19 -0.00    +0.000 HD
DOCKED: BRANCH  18  21
DOCKED: ATOM     21  O   UNL     1      20.229 -18.229  -1.074 -2.07 -0.00    +0.000 OA
DOCKED: ATOM     22  H   UNL     1      20.271 -17.264  -1.163 -0.42 -0.00    +0.000 HD
DOCKED: ENDBRANCH  18  21
DOCKED: ENDBRANCH  16  17
DOCKED: ENDBRANCH  15  16
DOCKED: ENDBRANCH  14  15
DOCKED: ENDBRANCH  13  14
DOCKED: ENDBRANCH  12  13
DOCKED: ENDBRANCH   1  12
DOCKED: TORSDOF 9
DOCKED: TER
DOCKED: ENDMDL
________________________________________________________________________________


	BEGINNING GENETIC ALGORITHM DOCKING 8 of 100
Run: 8 Seed: 1481095050 448195361 [ Run 8 of 100 GA/GALS ]
Beginning LAMARCKIAN GENETIC ALGORITHM (LGA), with a maximum of 2500000 energy evaluations.

Final-Value: -14.441


	FINAL GENETIC ALGORITHM DOCKED STATE
	_______________________________________________


Detailed state:  trans 26.650 -17.362 1.026 quatxyzw -0.335945 0.384947 -0.405499 -0.757976 center 0.056 -0.347 0.144 ntor 9 -144.4463 178.1639 -156.7398 101.1624 -178.3669 97.3998 156.0909 -134.2795 -106.3994
State:	 26.650 -17.362   1.026  -0.515  0.590 -0.622 -81.428   -144.45  178.16 -156.74  101.16 -178.37   97.40  156.09 -134.28 -106.40

DOCKED: MODEL        8
DOCKED: USER    Run = 8
DOCKED: USER    DPF = ligand_dock.biased.dpf
DOCKED: USER  
DOCKED: USER    Estimated Free Energy of Binding    =  -10.85 kcal/mol  [=(1)+(2)+(3)-(4)]
DOCKED: USER    Estimated Inhibition Constant, Ki   =   11.12 nM (nanomolar)  [Temperature = 298.15 K]
DOCKED: USER    
DOCKED: USER    (1) Final Intermolecular Energy     =  -13.54 kcal/mol
DOCKED: USER        vdW + Hbond + desolv Energy     =  -13.54 kcal/mol
DOCKED: USER        Electrostatic Energy            =   +0.00 kcal/mol
DOCKED: USER    (2) Final Total Internal Energy     =   -0.91 kcal/mol
DOCKED: USER    (3) Torsional Free Energy           =   +2.68 kcal/mol
DOCKED: USER    (4) Unbound System's Energy  [=(2)] =   -0.91 kcal/mol
DOCKED: USER    
DOCKED: USER    
DOCKED: USER    NEWDPF move ligand.pdbqt
DOCKED: USER    NEWDPF about 0.056000 -0.347000 0.144000
DOCKED: USER    NEWDPF tran0 26.649619 -17.361747 1.026234
DOCKED: USER    NEWDPF quaternion0 -0.335945 0.384947 -0.405499 -0.757976
DOCKED: USER    NEWDPF axisangle0 -0.515030 0.590154 -0.621661 -81.427823
DOCKED: USER    NEWDPF quat0 -0.515030 0.590154 -0.621661 -81.427823
DOCKED: USER    NEWDPF dihe0 -144.45 178.16 -156.74 101.16 -178.37 97.40 156.09 -134.28 -106.40 
DOCKED: USER  keepresnum = 1 
DOCKED: USER  
DOCKED: REMARK  Name = 
DOCKED: REMARK  9 active torsions:
DOCKED: REMARK  status: ('A' for Active; 'I' for Inactive)
DOCKED: REMARK    1  A    between atoms: C_2  and  C_10
DOCKED: REMARK    2  A    between atoms: N_3  and  C_4
DOCKED: REMARK    3  A    between atoms: C_10  and  C_11
DOCKED: REMARK    4  A    between atoms: C_11  and  C_12
DOCKED: REMARK    5  A    between atoms: C_12  and  C_13
DOCKED: REMARK    6  A    between atoms: C_13  and  C_14
DOCKED: REMARK    7  A    between atoms: C_14  and  C_15
DOCKED: REMARK    8  A    between atoms: C_15  and  C_16
DOCKED: REMARK    9  A    between atoms: N_17  and  O_18
DOCKED: REMARK                            x       y       z     vdW  Elec       q    Type
DOCKED: REMARK                         _______ _______ _______ _____ _____    ______ ____
DOCKED: USER                              x       y       z     vdW  Elec       q    Type
DOCKED: USER                           _______ _______ _______ _____ _____    ______ ____
DOCKED: ROOT
DOCKED: ATOM      1  C   UNL     1      27.972 -15.672  -0.485 -0.30 -0.00    +0.000 C 
DOCKED: ENDROOT
DOCKED: BRANCH   1   3
DOCKED: ATOM      2  O   UNL     1      26.608 -13.994   0.520 -0.36 -0.00    +0.000 OA
DOCKED: ATOM      3  C   UNL     1      27.575 -14.791   0.661 -0.29 -0.00    +0.000 C 
DOCKED: ATOM      4  N   UNL     1      28.295 -14.855   1.902 -0.16 -0.00    +0.000 N 
DOCKED: ATOM      5  H   UNL     1      28.941 -15.589   2.023 -1.61 -0.00    +0.000 HD
DOCKED: BRANCH   4   6
DOCKED: ATOM      6  C   UNL     1      28.133 -13.915   2.975 -0.32 -0.00    +0.000 A 
DOCKED: ATOM      7  C   UNL     1      28.146 -14.329   4.321 -0.51 -0.00    +0.000 A 
DOCKED: ATOM      8  C   UNL     1      27.965 -13.395   5.347 -0.43 -0.00    +0.000 A 
DOCKED: ATOM      9  C   UNL     1      27.756 -12.048   5.041 -0.35 +0.00    +0.000 A 
DOCKED: ATOM     10  C   UNL     1      27.717 -11.633   3.707 -0.27 +0.00    +0.000 A 
DOCKED: ATOM     11  C   UNL     1      27.896 -12.563   2.679 -0.23 -0.00    +0.000 A 
DOCKED: ENDBRANCH   4   6
DOCKED: ENDBRANCH   1   3
DOCKED: BRANCH   1  12
DOCKED: ATOM     12  C   UNL     1      27.586 -17.127  -0.197 -0.36 -0.00    +0.000 C 
DOCKED: BRANCH  12  13
DOCKED: ATOM     13  C   UNL     1      26.067 -17.324  -0.316 -0.59 -0.00    +0.000 C 
DOCKED: BRANCH  13  14
DOCKED: ATOM     14  C   UNL     1      25.460 -16.543  -1.491 -0.59 -0.00    +0.000 C 
DOCKED: BRANCH  14  15
DOCKED: ATOM     15  C   UNL     1      24.008 -16.956  -1.789 -0.46 -0.00    +0.000 C 
DOCKED: BRANCH  15  16
DOCKED: ATOM     16  C   UNL     1      23.559 -18.153  -0.940 -0.81 -0.00    +0.000 C 
DOCKED: BRANCH  16  17
DOCKED: ATOM     17  C   UNL     1      22.081 -18.391  -1.052 -0.79 -0.00    +0.000 C 
DOCKED: ATOM     18  N   UNL     1      21.581 -19.509  -1.788 -0.49 -0.00    +0.000 N 
DOCKED: ATOM     19  O   UNL     1      21.280 -17.614  -0.467 -1.66 -0.00    +0.000 OA
DOCKED: ATOM     20  H   UNL     1      22.209 -20.107  -2.254 -0.57 -0.00    +0.000 HD
DOCKED: BRANCH  18  21
DOCKED: ATOM     21  O   UNL     1      20.250 -19.753  -1.851 -1.84 -0.00    +0.000 OA
DOCKED: ATOM     22  H   UNL     1      20.098 -20.711  -1.855 -0.54 -0.00    +0.000 HD
DOCKED: ENDBRANCH  18  21
DOCKED: ENDBRANCH  16  17
DOCKED: ENDBRANCH  15  16
DOCKED: ENDBRANCH  14  15
DOCKED: ENDBRANCH  13  14
DOCKED: ENDBRANCH  12  13
DOCKED: ENDBRANCH   1  12
DOCKED: TORSDOF 9
DOCKED: TER
DOCKED: ENDMDL
________________________________________________________________________________


	BEGINNING GENETIC ALGORITHM DOCKING 9 of 100
Run: 9 Seed: 354480486 1065711493 [ Run 9 of 100 GA/GALS ]
Beginning LAMARCKIAN GENETIC ALGORITHM (LGA), with a maximum of 2500000 energy evaluations.

Final-Value: -13.347


	FINAL GENETIC ALGORITHM DOCKED STATE
	_______________________________________________


Detailed state:  trans 24.957 -15.924 0.089 quatxyzw -0.124985 0.359739 -0.775933 -0.502886 center 0.056 -0.347 0.144 ntor 9 1.5073 180.0000 136.3943 -176.4977 64.7730 -75.1066 25.9935 25.0783 57.3614
State:	 24.957 -15.924   0.089  -0.145  0.416 -0.898 -119.618      1.51  180.00  136.39 -176.50   64.77  -75.11   25.99   25.08   57.36

DOCKED: MODEL        9
DOCKED: USER    Run = 9
DOCKED: USER    DPF = ligand_dock.biased.dpf
DOCKED: USER  
DOCKED: USER    Estimated Free Energy of Binding    =   -9.33 kcal/mol  [=(1)+(2)+(3)-(4)]
DOCKED: USER    Estimated Inhibition Constant, Ki   =  144.09 nM (nanomolar)  [Temperature = 298.15 K]
DOCKED: USER    
DOCKED: USER    (1) Final Intermolecular Energy     =  -12.02 kcal/mol
DOCKED: USER        vdW + Hbond + desolv Energy     =  -12.02 kcal/mol
DOCKED: USER        Electrostatic Energy            =   +0.00 kcal/mol
DOCKED: USER    (2) Final Total Internal Energy     =   -1.33 kcal/mol
DOCKED: USER    (3) Torsional Free Energy           =   +2.68 kcal/mol
DOCKED: USER    (4) Unbound System's Energy  [=(2)] =   -1.33 kcal/mol
DOCKED: USER    
DOCKED: USER    
DOCKED: USER    NEWDPF move ligand.pdbqt
DOCKED: USER    NEWDPF about 0.056000 -0.347000 0.144000
DOCKED: USER    NEWDPF tran0 24.956706 -15.924113 0.089012
DOCKED: USER    NEWDPF quaternion0 -0.124985 0.359739 -0.775933 -0.502886
DOCKED: USER    NEWDPF axisangle0 -0.144599 0.416195 -0.897704 -119.617816
DOCKED: USER    NEWDPF quat0 -0.144599 0.416195 -0.897704 -119.617816
DOCKED: USER    NEWDPF dihe0 1.51 180.00 136.39 -176.50 64.77 -75.11 25.99 25.08 57.36 
DOCKED: USER  keepresnum = 1 
DOCKED: USER  
DOCKED: REMARK  Name = 
DOCKED: REMARK  9 active torsions:
DOCKED: REMARK  status: ('A' for Active; 'I' for Inactive)
DOCKED: REMARK    1  A    between atoms: C_2  and  C_10
DOCKED: REMARK    2  A    between atoms: N_3  and  C_4
DOCKED: REMARK    3  A    between atoms: C_10  and  C_11
DOCKED: REMARK    4  A    between atoms: C_11  and  C_12
DOCKED: REMARK    5  A    between atoms: C_12  and  C_13
DOCKED: REMARK    6  A    between atoms: C_13  and  C_14
DOCKED: REMARK    7  A    between atoms: C_14  and  C_15
DOCKED: REMARK    8  A    between atoms: C_15  and  C_16
DOCKED: REMARK    9  A    between atoms: N_17  and  O_18
DOCKED: REMARK                            x       y       z     vdW  Elec       q    Type
DOCKED: REMARK                         _______ _______ _______ _____ _____    ______ ____
DOCKED: USER                              x       y       z     vdW  Elec       q    Type
DOCKED: USER                           _______ _______ _______ _____ _____    ______ ____
DOCKED: ROOT
DOCKED: ATOM      1  C   UNL     1      27.308 -16.382  -0.984 -0.41 -0.00    +0.000 C 
DOCKED: ENDROOT
DOCKED: BRANCH   1   3
DOCKED: ATOM      2  O   UNL     1      28.581 -15.425   0.791 -0.23 -0.00    +0.000 OA
DOCKED: ATOM      3  C   UNL     1      27.633 -15.275  -0.027 -0.30 -0.00    +0.000 C 
DOCKED: ATOM      4  N   UNL     1      26.868 -14.059  -0.046 -0.28 -0.00    +0.000 N 
DOCKED: ATOM      5  H   UNL     1      26.240 -13.920  -0.792 -0.01 -0.00    +0.000 HD
DOCKED: BRANCH   4   6
DOCKED: ATOM      6  C   UNL     1      26.960 -13.036   0.957 -0.27 -0.00    +0.000 A 
DOCKED: ATOM      7  C   UNL     1      26.869 -11.671   0.624 -0.22 +0.00    +0.000 A 
DOCKED: ATOM      8  C   UNL     1      26.982 -10.694   1.618 -0.25 +0.00    +0.000 A 
DOCKED: ATOM      9  C   UNL     1      27.200 -11.066   2.947 -0.26 +0.00    +0.000 A 
DOCKED: ATOM     10  C   UNL     1      27.317 -12.418   3.283 -0.24 +0.00    +0.000 A 
DOCKED: ATOM     11  C   UNL     1      27.205 -13.397   2.292 -0.30 -0.00    +0.000 A 
DOCKED: ENDBRANCH   4   6
DOCKED: ENDBRANCH   1   3
DOCKED: BRANCH   1  12
DOCKED: ATOM     12  C   UNL     1      25.856 -16.835  -0.800 -0.57 -0.00    +0.000 C 
DOCKED: BRANCH  12  13
DOCKED: ATOM     13  C   UNL     1      25.786 -18.336  -0.483 -0.64 -0.00    +0.000 C 
DOCKED: BRANCH  13  14
DOCKED: ATOM     14  C   UNL     1      24.395 -18.931  -0.745 -0.59 -0.00    +0.000 C 
DOCKED: BRANCH  14  15
DOCKED: ATOM     15  C   UNL     1      23.365 -17.868  -1.167 -0.76 -0.00    +0.000 C 
DOCKED: BRANCH  15  16
DOCKED: ATOM     16  C   UNL     1      22.146 -17.840  -0.237 -0.79 -0.00    +0.000 C 
DOCKED: BRANCH  16  17
DOCKED: ATOM     17  C   UNL     1      20.925 -18.405  -0.904 -0.72 -0.00    +0.000 C 
DOCKED: ATOM     18  N   UNL     1      21.023 -19.565  -1.733 -0.70 -0.00    +0.000 N 
DOCKED: ATOM     19  O   UNL     1      19.802 -17.867  -0.706 -1.77 -0.00    +0.000 OA
DOCKED: ATOM     20  H   UNL     1      21.903 -19.976  -1.895 -0.45 -0.00    +0.000 HD
DOCKED: BRANCH  18  21
DOCKED: ATOM     21  O   UNL     1      19.917 -20.104  -2.298 -1.76 -0.00    +0.000 OA
DOCKED: ATOM     22  H   UNL     1      19.141 -19.572  -2.062 -0.48 -0.00    +0.000 HD
DOCKED: ENDBRANCH  18  21
DOCKED: ENDBRANCH  16  17
DOCKED: ENDBRANCH  15  16
DOCKED: ENDBRANCH  14  15
DOCKED: ENDBRANCH  13  14
DOCKED: ENDBRANCH  12  13
DOCKED: ENDBRANCH   1  12
DOCKED: TORSDOF 9
DOCKED: TER
DOCKED: ENDMDL
________________________________________________________________________________


	BEGINNING GENETIC ALGORITHM DOCKING 10 of 100
Run: 10 Seed: 830502141 693507067 [ Run 10 of 100 GA/GALS ]
Beginning LAMARCKIAN GENETIC ALGORITHM (LGA), with a maximum of 2500000 energy evaluations.

Final-Value: -13.297


	FINAL GENETIC ALGORITHM DOCKED STATE
	_______________________________________________


Detailed state:  trans 25.602 -17.365 -3.460 quatxyzw -0.016988 -0.969531 -0.243100 -0.024969 center 0.056 -0.347 0.144 ntor 9 26.4656 84.8040 -88.3116 -165.9839 126.9308 71.2657 174.5744 -65.9843 -90.4478
State:	 25.602 -17.365  -3.460  -0.017 -0.970 -0.243 -177.138     26.47   84.80  -88.31 -165.98  126.93   71.27  174.57  -65.98  -90.45

DOCKED: MODEL       10
DOCKED: USER    Run = 10
DOCKED: USER    DPF = ligand_dock.biased.dpf
DOCKED: USER  
DOCKED: USER    Estimated Free Energy of Binding    =   -9.42 kcal/mol  [=(1)+(2)+(3)-(4)]
DOCKED: USER    Estimated Inhibition Constant, Ki   =  125.14 nM (nanomolar)  [Temperature = 298.15 K]
DOCKED: USER    
DOCKED: USER    (1) Final Intermolecular Energy     =  -12.10 kcal/mol
DOCKED: USER        vdW + Hbond + desolv Energy     =  -12.10 kcal/mol
DOCKED: USER        Electrostatic Energy            =   +0.00 kcal/mol
DOCKED: USER    (2) Final Total Internal Energy     =   -1.20 kcal/mol
DOCKED: USER    (3) Torsional Free Energy           =   +2.68 kcal/mol
DOCKED: USER    (4) Unbound System's Energy  [=(2)] =   -1.20 kcal/mol
DOCKED: USER    
DOCKED: USER    
DOCKED: USER    NEWDPF move ligand.pdbqt
DOCKED: USER    NEWDPF about 0.056000 -0.347000 0.144000
DOCKED: USER    NEWDPF tran0 25.601991 -17.365450 -3.459509
DOCKED: USER    NEWDPF quaternion0 -0.016988 -0.969531 -0.243100 -0.024969
DOCKED: USER    NEWDPF axisangle0 -0.016994 -0.969833 -0.243176 -177.138480
DOCKED: USER    NEWDPF quat0 -0.016994 -0.969833 -0.243176 -177.138480
DOCKED: USER    NEWDPF dihe0 26.47 84.80 -88.31 -165.98 126.93 71.27 174.57 -65.98 -90.45 
DOCKED: USER  keepresnum = 1 
DOCKED: USER  
DOCKED: REMARK  Name = 
DOCKED: REMARK  9 active torsions:
DOCKED: REMARK  status: ('A' for Active; 'I' for Inactive)
DOCKED: REMARK    1  A    between atoms: C_2  and  C_10
DOCKED: REMARK    2  A    between atoms: N_3  and  C_4
DOCKED: REMARK    3  A    between atoms: C_10  and  C_11
DOCKED: REMARK    4  A    between atoms: C_11  and  C_12
DOCKED: REMARK    5  A    between atoms: C_12  and  C_13
DOCKED: REMARK    6  A    between atoms: C_13  and  C_14
DOCKED: REMARK    7  A    between atoms: C_14  and  C_15
DOCKED: REMARK    8  A    between atoms: C_15  and  C_16
DOCKED: REMARK    9  A    between atoms: N_17  and  O_18
DOCKED: REMARK                            x       y       z     vdW  Elec       q    Type
DOCKED: REMARK                         _______ _______ _______ _____ _____    ______ ____
DOCKED: USER                              x       y       z     vdW  Elec       q    Type
DOCKED: USER                           _______ _______ _______ _____ _____    ______ ____
DOCKED: ROOT
DOCKED: ATOM      1  C   UNL     1      26.192 -14.853  -2.983 -0.45 -0.00    +0.000 C 
DOCKED: ENDROOT
DOCKED: BRANCH   1   3
DOCKED: ATOM      2  O   UNL     1      28.336 -15.894  -3.079 -0.28 -0.00    +0.000 OA
DOCKED: ATOM      3  C   UNL     1      27.419 -15.308  -3.715 -0.37 -0.00    +0.000 C 
DOCKED: ATOM      4  N   UNL     1      27.543 -15.071  -5.126 -0.43 -0.00    +0.000 N 
DOCKED: ATOM      5  H   UNL     1      26.749 -14.748  -5.613 -0.05 -0.00    +0.000 HD
DOCKED: BRANCH   4   6
DOCKED: ATOM      6  C   UNL     1      28.754 -15.274  -5.872 -0.35 -0.00    +0.000 A 
DOCKED: ATOM      7  C   UNL     1      29.505 -16.458  -5.744 -0.26 -0.00    +0.000 A 
DOCKED: ATOM      8  C   UNL     1      30.691 -16.621  -6.467 -0.28 -0.00    +0.000 A 
DOCKED: ATOM      9  C   UNL     1      31.145 -15.604  -7.310 -0.23 -0.00    +0.000 A 
DOCKED: ATOM     10  C   UNL     1      30.419 -14.416  -7.424 -0.22 -0.00    +0.000 A 
DOCKED: ATOM     11  C   UNL     1      29.233 -14.248  -6.703 -0.31 -0.00    +0.000 A 
DOCKED: ENDBRANCH   4   6
DOCKED: ENDBRANCH   1   3
DOCKED: BRANCH   1  12
DOCKED: ATOM     12  C   UNL     1      25.131 -15.959  -2.982 -0.39 -0.00    +0.000 C 
DOCKED: BRANCH  12  13
DOCKED: ATOM     13  C   UNL     1      25.303 -16.883  -1.768 -0.62 -0.00    +0.000 C 
DOCKED: BRANCH  13  14
DOCKED: ATOM     14  C   UNL     1      24.202 -16.684  -0.715 -0.54 -0.00    +0.000 C 
DOCKED: BRANCH  14  15
DOCKED: ATOM     15  C   UNL     1      23.763 -18.006  -0.060 -0.70 -0.00    +0.000 C 
DOCKED: BRANCH  15  16
DOCKED: ATOM     16  C   UNL     1      23.189 -18.996  -1.082 -0.81 -0.00    +0.000 C 
DOCKED: BRANCH  16  17
DOCKED: ATOM     17  C   UNL     1      21.689 -18.954  -1.115 -0.82 -0.00    +0.000 C 
DOCKED: ATOM     18  N   UNL     1      20.963 -19.738  -2.064 -0.53 -0.00    +0.000 N 
DOCKED: ATOM     19  O   UNL     1      21.067 -18.245  -0.280 -1.80 -0.00    +0.000 OA
DOCKED: ATOM     20  H   UNL     1      21.452 -20.283  -2.724 -0.57 -0.00    +0.000 HD
DOCKED: BRANCH  18  21
DOCKED: ATOM     21  O   UNL     1      19.609 -19.740  -2.066 -1.65 -0.00    +0.000 OA
DOCKED: ATOM     22  H   UNL     1      19.285 -18.904  -1.695 -0.44 -0.00    +0.000 HD
DOCKED: ENDBRANCH  18  21
DOCKED: ENDBRANCH  16  17
DOCKED: ENDBRANCH  15  16
DOCKED: ENDBRANCH  14  15
DOCKED: ENDBRANCH  13  14
DOCKED: ENDBRANCH  12  13
DOCKED: ENDBRANCH   1  12
DOCKED: TORSDOF 9
DOCKED: TER
DOCKED: ENDMDL
________________________________________________________________________________


	BEGINNING GENETIC ALGORITHM DOCKING 11 of 100
Run: 11 Seed: 1710383612 557943653 [ Run 11 of 100 GA/GALS ]
Beginning LAMARCKIAN GENETIC ALGORITHM (LGA), with a maximum of 2500000 energy evaluations.

Final-Value: -13.266


	FINAL GENETIC ALGORITHM DOCKED STATE
	_______________________________________________


Detailed state:  trans 27.118 -16.007 -1.678 quatxyzw 0.475749 -0.806849 0.345633 -0.056526 center 0.056 -0.347 0.144 ntor 9 18.8094 -32.5369 -68.0880 -165.0234 170.0798 159.7499 -153.9368 34.7468 3.9119
State:	 27.118 -16.007  -1.678   0.477 -0.808  0.346 -173.519     18.81  -32.54  -68.09 -165.02  170.08  159.75 -153.94   34.75    3.91

DOCKED: MODEL       11
DOCKED: USER    Run = 11
DOCKED: USER    DPF = ligand_dock.biased.dpf
DOCKED: USER  
DOCKED: USER    Estimated Free Energy of Binding    =   -9.35 kcal/mol  [=(1)+(2)+(3)-(4)]
DOCKED: USER    Estimated Inhibition Constant, Ki   =  140.55 nM (nanomolar)  [Temperature = 298.15 K]
DOCKED: USER    
DOCKED: USER    (1) Final Intermolecular Energy     =  -12.03 kcal/mol
DOCKED: USER        vdW + Hbond + desolv Energy     =  -12.03 kcal/mol
DOCKED: USER        Electrostatic Energy            =   +0.00 kcal/mol
DOCKED: USER    (2) Final Total Internal Energy     =   -1.23 kcal/mol
DOCKED: USER    (3) Torsional Free Energy           =   +2.68 kcal/mol
DOCKED: USER    (4) Unbound System's Energy  [=(2)] =   -1.23 kcal/mol
DOCKED: USER    
DOCKED: USER    
DOCKED: USER    NEWDPF move ligand.pdbqt
DOCKED: USER    NEWDPF about 0.056000 -0.347000 0.144000
DOCKED: USER    NEWDPF tran0 27.117844 -16.006586 -1.678337
DOCKED: USER    NEWDPF quaternion0 0.475749 -0.806849 0.345633 -0.056526
DOCKED: USER    NEWDPF axisangle0 0.476511 -0.808141 0.346187 -173.519163
DOCKED: USER    NEWDPF quat0 0.476511 -0.808141 0.346187 -173.519163
DOCKED: USER    NEWDPF dihe0 18.81 -32.54 -68.09 -165.02 170.08 159.75 -153.94 34.75 3.91 
DOCKED: USER  keepresnum = 1 
DOCKED: USER  
DOCKED: REMARK  Name = 
DOCKED: REMARK  9 active torsions:
DOCKED: REMARK  status: ('A' for Active; 'I' for Inactive)
DOCKED: REMARK    1  A    between atoms: C_2  and  C_10
DOCKED: REMARK    2  A    between atoms: N_3  and  C_4
DOCKED: REMARK    3  A    between atoms: C_10  and  C_11
DOCKED: REMARK    4  A    between atoms: C_11  and  C_12
DOCKED: REMARK    5  A    between atoms: C_12  and  C_13
DOCKED: REMARK    6  A    between atoms: C_13  and  C_14
DOCKED: REMARK    7  A    between atoms: C_14  and  C_15
DOCKED: REMARK    8  A    between atoms: C_15  and  C_16
DOCKED: REMARK    9  A    between atoms: N_17  and  O_18
DOCKED: REMARK                            x       y       z     vdW  Elec       q    Type
DOCKED: REMARK                         _______ _______ _______ _____ _____    ______ ____
DOCKED: USER                              x       y       z     vdW  Elec       q    Type
DOCKED: USER                           _______ _______ _______ _____ _____    ______ ____
DOCKED: ROOT
DOCKED: ATOM      1  C   UNL     1      25.582 -15.329  -3.696 -0.57 -0.00    +0.000 C 
DOCKED: ENDROOT
DOCKED: BRANCH   1   3
DOCKED: ATOM      2  O   UNL     1      27.605 -14.096  -3.425 -0.22 -0.00    +0.000 OA
DOCKED: ATOM      3  C   UNL     1      26.918 -14.846  -4.171 -0.45 -0.00    +0.000 C 
DOCKED: ATOM      4  N   UNL     1      27.405 -15.233  -5.466 -0.47 +0.00    +0.000 N 
DOCKED: ATOM      5  H   UNL     1      26.914 -15.934  -5.953 -0.01 +0.00    +0.000 HD
DOCKED: BRANCH   4   6
DOCKED: ATOM      6  C   UNL     1      28.562 -14.660  -6.095 -0.35 -0.00    +0.000 A 
DOCKED: ATOM      7  C   UNL     1      28.563 -13.331  -6.559 -0.26 -0.00    +0.000 A 
DOCKED: ATOM      8  C   UNL     1      29.697 -12.805  -7.185 -0.17 -0.00    +0.000 A 
DOCKED: ATOM      9  C   UNL     1      30.831 -13.600  -7.367 -0.15 -0.00    +0.000 A 
DOCKED: ATOM     10  C   UNL     1      30.830 -14.927  -6.931 -0.21 -0.00    +0.000 A 
DOCKED: ATOM     11  C   UNL     1      29.699 -15.458  -6.305 -0.32 -0.00    +0.000 A 
DOCKED: ENDBRANCH   4   6
DOCKED: ENDBRANCH   1   3
DOCKED: BRANCH   1  12
DOCKED: ATOM     12  C   UNL     1      25.732 -16.106  -2.383 -0.54 -0.00    +0.000 C 
DOCKED: BRANCH  12  13
DOCKED: ATOM     13  C   UNL     1      24.383 -16.683  -1.930 -0.47 -0.00    +0.000 C 
DOCKED: BRANCH  13  14
DOCKED: ATOM     14  C   UNL     1      24.286 -16.832  -0.405 -0.36 -0.00    +0.000 C 
DOCKED: BRANCH  14  15
DOCKED: ATOM     15  C   UNL     1      23.827 -18.237   0.026 -0.72 -0.00    +0.000 C 
DOCKED: BRANCH  15  16
DOCKED: ATOM     16  C   UNL     1      23.169 -19.009  -1.125 -0.80 -0.00    +0.000 C 
DOCKED: BRANCH  16  17
DOCKED: ATOM     17  C   UNL     1      21.672 -18.899  -1.084 -0.83 -0.00    +0.000 C 
DOCKED: ATOM     18  N   UNL     1      20.858 -19.801  -1.837 -0.64 -0.00    +0.000 N 
DOCKED: ATOM     19  O   UNL     1      21.132 -18.023  -0.357 -1.84 -0.00    +0.000 OA
DOCKED: ATOM     20  H   UNL     1      21.283 -20.477  -2.413 -0.52 -0.00    +0.000 HD
DOCKED: BRANCH  18  21
DOCKED: ATOM     21  O   UNL     1      19.507 -19.734  -1.765 -1.66 -0.00    +0.000 OA
DOCKED: ATOM     22  H   UNL     1      19.245 -18.868  -1.417 -0.45 -0.00    +0.000 HD
DOCKED: ENDBRANCH  18  21
DOCKED: ENDBRANCH  16  17
DOCKED: ENDBRANCH  15  16
DOCKED: ENDBRANCH  14  15
DOCKED: ENDBRANCH  13  14
DOCKED: ENDBRANCH  12  13
DOCKED: ENDBRANCH   1  12
DOCKED: TORSDOF 9
DOCKED: TER
DOCKED: ENDMDL
________________________________________________________________________________


	BEGINNING GENETIC ALGORITHM DOCKING 12 of 100
Run: 12 Seed: 292242733 779768036 [ Run 12 of 100 GA/GALS ]
Beginning LAMARCKIAN GENETIC ALGORITHM (LGA), with a maximum of 2500000 energy evaluations.

Final-Value: -13.872


	FINAL GENETIC ALGORITHM DOCKED STATE
	_______________________________________________


Detailed state:  trans 25.371 -14.781 -1.433 quatxyzw 0.550634 0.198142 0.810706 0.017262 center 0.056 -0.347 0.144 ntor 9 -35.2275 87.4598 157.0556 13.0984 -136.0839 32.2587 42.4506 -175.9273 -82.0192
State:	 25.371 -14.781  -1.433   0.551  0.198  0.811 178.022    -35.23   87.46  157.06   13.10 -136.08   32.26   42.45 -175.93  -82.02

DOCKED: MODEL       12
DOCKED: USER    Run = 12
DOCKED: USER    DPF = ligand_dock.biased.dpf
DOCKED: USER  
DOCKED: USER    Estimated Free Energy of Binding    =   -9.76 kcal/mol  [=(1)+(2)+(3)-(4)]
DOCKED: USER    Estimated Inhibition Constant, Ki   =   69.92 nM (nanomolar)  [Temperature = 298.15 K]
DOCKED: USER    
DOCKED: USER    (1) Final Intermolecular Energy     =  -12.45 kcal/mol
DOCKED: USER        vdW + Hbond + desolv Energy     =  -12.45 kcal/mol
DOCKED: USER        Electrostatic Energy            =   +0.00 kcal/mol
DOCKED: USER    (2) Final Total Internal Energy     =   -1.43 kcal/mol
DOCKED: USER    (3) Torsional Free Energy           =   +2.68 kcal/mol
DOCKED: USER    (4) Unbound System's Energy  [=(2)] =   -1.43 kcal/mol
DOCKED: USER    
DOCKED: USER    
DOCKED: USER    NEWDPF move ligand.pdbqt
DOCKED: USER    NEWDPF about 0.056000 -0.347000 0.144000
DOCKED: USER    NEWDPF tran0 25.370765 -14.780662 -1.433468
DOCKED: USER    NEWDPF quaternion0 0.550634 0.198142 0.810706 0.017262
DOCKED: USER    NEWDPF axisangle0 0.550716 0.198172 0.810827 178.021844
DOCKED: USER    NEWDPF quat0 0.550716 0.198172 0.810827 178.021844
DOCKED: USER    NEWDPF dihe0 -35.23 87.46 157.06 13.10 -136.08 32.26 42.45 -175.93 -82.02 
DOCKED: USER  keepresnum = 1 
DOCKED: USER  
DOCKED: REMARK  Name = 
DOCKED: REMARK  9 active torsions:
DOCKED: REMARK  status: ('A' for Active; 'I' for Inactive)
DOCKED: REMARK    1  A    between atoms: C_2  and  C_10
DOCKED: REMARK    2  A    between atoms: N_3  and  C_4
DOCKED: REMARK    3  A    between atoms: C_10  and  C_11
DOCKED: REMARK    4  A    between atoms: C_11  and  C_12
DOCKED: REMARK    5  A    between atoms: C_12  and  C_13
DOCKED: REMARK    6  A    between atoms: C_13  and  C_14
DOCKED: REMARK    7  A    between atoms: C_14  and  C_15
DOCKED: REMARK    8  A    between atoms: C_15  and  C_16
DOCKED: REMARK    9  A    between atoms: N_17  and  O_18
DOCKED: REMARK                            x       y       z     vdW  Elec       q    Type
DOCKED: REMARK                         _______ _______ _______ _____ _____    ______ ____
DOCKED: USER                              x       y       z     vdW  Elec       q    Type
DOCKED: USER                           _______ _______ _______ _____ _____    ______ ____
DOCKED: ROOT
DOCKED: ATOM      1  C   UNL     1      26.836 -16.895  -0.913 -0.50 -0.00    +0.000 C 
DOCKED: ENDROOT
DOCKED: BRANCH   1   3
DOCKED: ATOM      2  O   UNL     1      28.758 -16.468  -2.260 -0.28 -0.00    +0.000 OA
DOCKED: ATOM      3  C   UNL     1      27.505 -16.372  -2.149 -0.36 -0.00    +0.000 C 
DOCKED: ATOM      4  N   UNL     1      26.722 -15.766  -3.189 -0.39 -0.00    +0.000 N 
DOCKED: ATOM      5  H   UNL     1      25.742 -15.844  -3.135 -0.03 -0.00    +0.000 HD
DOCKED: BRANCH   4   6
DOCKED: ATOM      6  C   UNL     1      27.280 -15.052  -4.303 -0.38 -0.00    +0.000 A 
DOCKED: ATOM      7  C   UNL     1      28.305 -15.608  -5.093 -0.34 -0.00    +0.000 A 
DOCKED: ATOM      8  C   UNL     1      28.844 -14.883  -6.160 -0.35 -0.00    +0.000 A 
DOCKED: ATOM      9  C   UNL     1      28.380 -13.595  -6.439 -0.25 -0.00    +0.000 A 
DOCKED: ATOM     10  C   UNL     1      27.381 -13.026  -5.645 -0.19 -0.00    +0.000 A 
DOCKED: ATOM     11  C   UNL     1      26.839 -13.747  -4.578 -0.32 -0.00    +0.000 A 
DOCKED: ENDBRANCH   4   6
DOCKED: ENDBRANCH   1   3
DOCKED: BRANCH   1  12
DOCKED: ATOM     12  C   UNL     1      25.752 -15.920  -0.441 -0.27 -0.00    +0.000 C 
DOCKED: BRANCH  12  13
DOCKED: ATOM     13  C   UNL     1      24.366 -16.363  -0.930 -0.43 -0.00    +0.000 C 
DOCKED: BRANCH  13  14
DOCKED: ATOM     14  C   UNL     1      24.422 -17.629  -1.798 -0.66 -0.00    +0.000 C 
DOCKED: BRANCH  14  15
DOCKED: ATOM     15  C   UNL     1      23.974 -18.890  -1.038 -0.73 -0.00    +0.000 C 
DOCKED: BRANCH  15  16
DOCKED: ATOM     16  C   UNL     1      22.828 -18.600  -0.060 -0.77 -0.00    +0.000 C 
DOCKED: BRANCH  16  17
DOCKED: ATOM     17  C   UNL     1      21.498 -18.572  -0.755 -0.86 -0.00    +0.000 C 
DOCKED: ATOM     18  N   UNL     1      21.007 -19.733  -1.429 -0.75 -0.00    +0.000 N 
DOCKED: ATOM     19  O   UNL     1      20.798 -17.525  -0.717 -2.10 +0.00    +0.000 OA
DOCKED: ATOM     20  H   UNL     1      21.562 -20.546  -1.467 -0.20 -0.00    +0.000 HD
DOCKED: BRANCH  18  21
DOCKED: ATOM     21  O   UNL     1      19.787 -19.725  -2.017 -1.80 -0.00    +0.000 OA
DOCKED: ATOM     22  H   UNL     1      19.179 -19.185  -1.490 -0.49 -0.00    +0.000 HD
DOCKED: ENDBRANCH  18  21
DOCKED: ENDBRANCH  16  17
DOCKED: ENDBRANCH  15  16
DOCKED: ENDBRANCH  14  15
DOCKED: ENDBRANCH  13  14
DOCKED: ENDBRANCH  12  13
DOCKED: ENDBRANCH   1  12
DOCKED: TORSDOF 9
DOCKED: TER
DOCKED: ENDMDL
________________________________________________________________________________


	BEGINNING GENETIC ALGORITHM DOCKING 13 of 100
Run: 13 Seed: 739627770 889136671 [ Run 13 of 100 GA/GALS ]
Beginning LAMARCKIAN GENETIC ALGORITHM (LGA), with a maximum of 2500000 energy evaluations.

Final-Value: -12.634


	FINAL GENETIC ALGORITHM DOCKED STATE
	_______________________________________________


Detailed state:  trans 26.255 -15.242 -3.643 quatxyzw 0.297754 0.595149 0.737416 -0.115576 center 0.056 -0.347 0.144 ntor 9 -20.1452 -28.1224 -179.6727 71.2030 79.7519 166.1108 44.3577 143.5523 -32.1475
State:	 26.255 -15.242  -3.643   0.300  0.599  0.742 -166.726    -20.15  -28.12 -179.67   71.20   79.75  166.11   44.36  143.55  -32.15

DOCKED: MODEL       13
DOCKED: USER    Run = 13
DOCKED: USER    DPF = ligand_dock.biased.dpf
DOCKED: USER  
DOCKED: USER    Estimated Free Energy of Binding    =   -8.63 kcal/mol  [=(1)+(2)+(3)-(4)]
DOCKED: USER    Estimated Inhibition Constant, Ki   =  470.81 nM (nanomolar)  [Temperature = 298.15 K]
DOCKED: USER    
DOCKED: USER    (1) Final Intermolecular Energy     =  -11.32 kcal/mol
DOCKED: USER        vdW + Hbond + desolv Energy     =  -11.32 kcal/mol
DOCKED: USER        Electrostatic Energy            =   +0.00 kcal/mol
DOCKED: USER    (2) Final Total Internal Energy     =   -1.32 kcal/mol
DOCKED: USER    (3) Torsional Free Energy           =   +2.68 kcal/mol
DOCKED: USER    (4) Unbound System's Energy  [=(2)] =   -1.32 kcal/mol
DOCKED: USER    
DOCKED: USER    
DOCKED: USER    NEWDPF move ligand.pdbqt
DOCKED: USER    NEWDPF about 0.056000 -0.347000 0.144000
DOCKED: USER    NEWDPF tran0 26.254655 -15.241736 -3.642516
DOCKED: USER    NEWDPF quaternion0 0.297754 0.595149 0.737416 -0.115576
DOCKED: USER    NEWDPF axisangle0 0.299763 0.599164 0.742391 -166.726335
DOCKED: USER    NEWDPF quat0 0.299763 0.599164 0.742391 -166.726335
DOCKED: USER    NEWDPF dihe0 -20.15 -28.12 -179.67 71.20 79.75 166.11 44.36 143.55 -32.15 
DOCKED: USER  keepresnum = 1 
DOCKED: USER  
DOCKED: REMARK  Name = 
DOCKED: REMARK  9 active torsions:
DOCKED: REMARK  status: ('A' for Active; 'I' for Inactive)
DOCKED: REMARK    1  A    between atoms: C_2  and  C_10
DOCKED: REMARK    2  A    between atoms: N_3  and  C_4
DOCKED: REMARK    3  A    between atoms: C_10  and  C_11
DOCKED: REMARK    4  A    between atoms: C_11  and  C_12
DOCKED: REMARK    5  A    between atoms: C_12  and  C_13
DOCKED: REMARK    6  A    between atoms: C_13  and  C_14
DOCKED: REMARK    7  A    between atoms: C_14  and  C_15
DOCKED: REMARK    8  A    between atoms: C_15  and  C_16
DOCKED: REMARK    9  A    between atoms: N_17  and  O_18
DOCKED: REMARK                            x       y       z     vdW  Elec       q    Type
DOCKED: REMARK                         _______ _______ _______ _____ _____    ______ ____
DOCKED: USER                              x       y       z     vdW  Elec       q    Type
DOCKED: USER                           _______ _______ _______ _____ _____    ______ ____
DOCKED: ROOT
DOCKED: ATOM      1  C   UNL     1      27.543 -15.561  -1.378 -0.30 -0.00    +0.000 C 
DOCKED: ENDROOT
DOCKED: BRANCH   1   3
DOCKED: ATOM      2  O   UNL     1      29.812 -15.346  -2.079 -0.11 -0.00    +0.000 OA
DOCKED: ATOM      3  C   UNL     1      28.650 -15.740  -2.372 -0.23 -0.00    +0.000 C 
DOCKED: ATOM      4  N   UNL     1      28.383 -16.349  -3.645 -0.23 -0.00    +0.000 N 
DOCKED: ATOM      5  H   UNL     1      27.506 -16.777  -3.778 +0.07 -0.00    +0.000 HD
DOCKED: BRANCH   4   6
DOCKED: ATOM      6  C   UNL     1      29.317 -16.373  -4.737 -0.27 -0.00    +0.000 A 
DOCKED: ATOM      7  C   UNL     1      29.726 -15.188  -5.378 -0.23 -0.00    +0.000 A 
DOCKED: ATOM      8  C   UNL     1      30.621 -15.242  -6.452 -0.22 -0.00    +0.000 A 
DOCKED: ATOM      9  C   UNL     1      31.102 -16.473  -6.903 -0.25 -0.00    +0.000 A 
DOCKED: ATOM     10  C   UNL     1      30.682 -17.655  -6.288 -0.30 -0.00    +0.000 A 
DOCKED: ATOM     11  C   UNL     1      29.788 -17.606  -5.215 -0.17 -0.00    +0.000 A 
DOCKED: ENDBRANCH   4   6
DOCKED: ENDBRANCH   1   3
DOCKED: BRANCH   1  12
DOCKED: ATOM     12  C   UNL     1      26.253 -15.135  -2.088 -0.41 -0.00    +0.000 C 
DOCKED: BRANCH  12  13
DOCKED: ATOM     13  C   UNL     1      25.019 -15.693  -1.364 -0.27 -0.00    +0.000 C 
DOCKED: BRANCH  13  14
DOCKED: ATOM     14  C   UNL     1      25.203 -17.152  -0.922 -0.65 -0.00    +0.000 C 
DOCKED: BRANCH  14  15
DOCKED: ATOM     15  C   UNL     1      24.119 -18.085  -1.492 -0.73 -0.00    +0.000 C 
DOCKED: BRANCH  15  16
DOCKED: ATOM     16  C   UNL     1      23.126 -18.544  -0.417 -0.82 -0.00    +0.000 C 
DOCKED: BRANCH  16  17
DOCKED: ATOM     17  C   UNL     1      21.716 -18.562  -0.934 -0.82 -0.00    +0.000 C 
DOCKED: ATOM     18  N   UNL     1      21.222 -19.696  -1.650 -0.61 -0.00    +0.000 N 
DOCKED: ATOM     19  O   UNL     1      20.958 -17.582  -0.709 -2.11 -0.00    +0.000 OA
DOCKED: ATOM     20  H   UNL     1      21.820 -20.456  -1.835 -0.42 -0.00    +0.000 HD
DOCKED: BRANCH  18  21
DOCKED: ATOM     21  O   UNL     1      19.937 -19.736  -2.076 -1.89 -0.00    +0.000 OA
DOCKED: ATOM     22  H   UNL     1      19.408 -19.103  -1.567 -0.33 -0.00    +0.000 HD
DOCKED: ENDBRANCH  18  21
DOCKED: ENDBRANCH  16  17
DOCKED: ENDBRANCH  15  16
DOCKED: ENDBRANCH  14  15
DOCKED: ENDBRANCH  13  14
DOCKED: ENDBRANCH  12  13
DOCKED: ENDBRANCH   1  12
DOCKED: TORSDOF 9
DOCKED: TER
DOCKED: ENDMDL
________________________________________________________________________________


	BEGINNING GENETIC ALGORITHM DOCKING 14 of 100
Run: 14 Seed: 1200461016 1842454490 [ Run 14 of 100 GA/GALS ]
Beginning LAMARCKIAN GENETIC ALGORITHM (LGA), with a maximum of 2500000 energy evaluations.

Final-Value: -14.931


	FINAL GENETIC ALGORITHM DOCKED STATE
	_______________________________________________


Detailed state:  trans 25.342 -16.370 0.832 quatxyzw -0.177327 0.377054 -0.568539 -0.709329 center 0.056 -0.347 0.144 ntor 9 6.0718 179.8686 -77.7219 -143.6341 75.6334 -123.5171 179.7976 52.7132 -62.9985
State:	 25.342 -16.370   0.832  -0.252  0.535 -0.807 -89.639      6.07  179.87  -77.72 -143.63   75.63 -123.52  179.80   52.71  -63.00

DOCKED: MODEL       14
DOCKED: USER    Run = 14
DOCKED: USER    DPF = ligand_dock.biased.dpf
DOCKED: USER  
DOCKED: USER    Estimated Free Energy of Binding    =  -10.97 kcal/mol  [=(1)+(2)+(3)-(4)]
DOCKED: USER    Estimated Inhibition Constant, Ki   =    9.06 nM (nanomolar)  [Temperature = 298.15 K]
DOCKED: USER    
DOCKED: USER    (1) Final Intermolecular Energy     =  -13.66 kcal/mol
DOCKED: USER        vdW + Hbond + desolv Energy     =  -13.66 kcal/mol
DOCKED: USER        Electrostatic Energy            =   +0.00 kcal/mol
DOCKED: USER    (2) Final Total Internal Energy     =   -1.27 kcal/mol
DOCKED: USER    (3) Torsional Free Energy           =   +2.68 kcal/mol
DOCKED: USER    (4) Unbound System's Energy  [=(2)] =   -1.27 kcal/mol
DOCKED: USER    
DOCKED: USER    
DOCKED: USER    NEWDPF move ligand.pdbqt
DOCKED: USER    NEWDPF about 0.056000 -0.347000 0.144000
DOCKED: USER    NEWDPF tran0 25.341699 -16.369644 0.831807
DOCKED: USER    NEWDPF quaternion0 -0.177327 0.377054 -0.568539 -0.709329
DOCKED: USER    NEWDPF axisangle0 -0.251572 0.534922 -0.806579 -89.639246
DOCKED: USER    NEWDPF quat0 -0.251572 0.534922 -0.806579 -89.639246
DOCKED: USER    NEWDPF dihe0 6.07 179.87 -77.72 -143.63 75.63 -123.52 179.80 52.71 -63.00 
DOCKED: USER  keepresnum = 1 
DOCKED: USER  
DOCKED: REMARK  Name = 
DOCKED: REMARK  9 active torsions:
DOCKED: REMARK  status: ('A' for Active; 'I' for Inactive)
DOCKED: REMARK    1  A    between atoms: C_2  and  C_10
DOCKED: REMARK    2  A    between atoms: N_3  and  C_4
DOCKED: REMARK    3  A    between atoms: C_10  and  C_11
DOCKED: REMARK    4  A    between atoms: C_11  and  C_12
DOCKED: REMARK    5  A    between atoms: C_12  and  C_13
DOCKED: REMARK    6  A    between atoms: C_13  and  C_14
DOCKED: REMARK    7  A    between atoms: C_14  and  C_15
DOCKED: REMARK    8  A    between atoms: C_15  and  C_16
DOCKED: REMARK    9  A    between atoms: N_17  and  O_18
DOCKED: REMARK                            x       y       z     vdW  Elec       q    Type
DOCKED: REMARK                         _______ _______ _______ _____ _____    ______ ____
DOCKED: USER                              x       y       z     vdW  Elec       q    Type
DOCKED: USER                           _______ _______ _______ _____ _____    ______ ____
DOCKED: ROOT
DOCKED: ATOM      1  C   UNL     1      27.512 -15.305  -0.190 -0.31 -0.00    +0.000 C 
DOCKED: ENDROOT
DOCKED: BRANCH   1   3
DOCKED: ATOM      2  O   UNL     1      26.345 -13.494   0.832 -0.39 -0.00    +0.000 OA
DOCKED: ATOM      3  C   UNL     1      27.240 -14.374   0.953 -0.26 -0.00    +0.000 C 
DOCKED: ATOM      4  N   UNL     1      27.998 -14.487   2.168 -0.30 -0.00    +0.000 N 
DOCKED: ATOM      5  H   UNL     1      28.579 -15.275   2.280 -1.64 -0.00    +0.000 HD
DOCKED: BRANCH   4   6
DOCKED: ATOM      6  C   UNL     1      27.963 -13.520   3.230 -0.33 -0.00    +0.000 A 
DOCKED: ATOM      7  C   UNL     1      28.024 -13.912   4.581 -0.50 -0.00    +0.000 A 
DOCKED: ATOM      8  C   UNL     1      27.968 -12.951   5.596 -0.42 -0.00    +0.000 A 
DOCKED: ATOM      9  C   UNL     1      27.835 -11.598   5.274 -0.36 +0.00    +0.000 A 
DOCKED: ATOM     10  C   UNL     1      27.748 -11.203   3.937 -0.29 +0.00    +0.000 A 
DOCKED: ATOM     11  C   UNL     1      27.803 -12.159   2.920 -0.24 -0.00    +0.000 A 
DOCKED: ENDBRANCH   4   6
DOCKED: ENDBRANCH   1   3
DOCKED: BRANCH   1  12
DOCKED: ATOM     12  C   UNL     1      26.543 -16.491  -0.154 -0.39 -0.00    +0.000 C 
DOCKED: BRANCH  12  13
DOCKED: ATOM     13  C   UNL     1      25.645 -16.504  -1.399 -0.57 -0.00    +0.000 C 
DOCKED: BRANCH  13  14
DOCKED: ATOM     14  C   UNL     1      24.164 -16.731  -1.058 -0.62 -0.00    +0.000 C 
DOCKED: BRANCH  14  15
DOCKED: ATOM     15  C   UNL     1      23.942 -17.978  -0.183 -0.72 -0.00    +0.000 C 
DOCKED: BRANCH  15  16
DOCKED: ATOM     16  C   UNL     1      23.196 -19.088  -0.935 -0.79 -0.00    +0.000 C 
DOCKED: BRANCH  16  17
DOCKED: ATOM     17  C   UNL     1      21.734 -18.778  -1.077 -0.82 -0.00    +0.000 C 
DOCKED: ATOM     18  N   UNL     1      20.838 -19.746  -1.626 -0.75 -0.00    +0.000 N 
DOCKED: ATOM     19  O   UNL     1      21.293 -17.666  -0.682 -1.85 -0.00    +0.000 OA
DOCKED: ATOM     20  H   UNL     1      21.188 -20.610  -1.945 -0.33 -0.00    +0.000 HD
DOCKED: BRANCH  18  21
DOCKED: ATOM     21  O   UNL     1      19.511 -19.488  -1.712 -1.39 -0.00    +0.000 OA
DOCKED: ATOM     22  H   UNL     1      19.344 -18.569  -1.450 -0.40 -0.00    +0.000 HD
DOCKED: ENDBRANCH  18  21
DOCKED: ENDBRANCH  16  17
DOCKED: ENDBRANCH  15  16
DOCKED: ENDBRANCH  14  15
DOCKED: ENDBRANCH  13  14
DOCKED: ENDBRANCH  12  13
DOCKED: ENDBRANCH   1  12
DOCKED: TORSDOF 9
DOCKED: TER
DOCKED: ENDMDL
________________________________________________________________________________


	BEGINNING GENETIC ALGORITHM DOCKING 15 of 100
Run: 15 Seed: 1181112239 1708929664 [ Run 15 of 100 GA/GALS ]
Beginning LAMARCKIAN GENETIC ALGORITHM (LGA), with a maximum of 2500000 energy evaluations.

Final-Value: -12.580


	FINAL GENETIC ALGORITHM DOCKED STATE
	_______________________________________________


Detailed state:  trans 24.350 -16.936 -2.899 quatxyzw -0.098809 -0.270986 -0.754972 -0.588915 center 0.056 -0.347 0.144 ntor 9 7.6769 175.0740 166.4068 47.2564 -83.1619 139.1447 -24.7781 28.8280 88.0111
State:	 24.350 -16.936  -2.899  -0.122 -0.335 -0.934 -107.840      7.68  175.07  166.41   47.26  -83.16  139.14  -24.78   28.83   88.01

DOCKED: MODEL       15
DOCKED: USER    Run = 15
DOCKED: USER    DPF = ligand_dock.biased.dpf
DOCKED: USER  
DOCKED: USER    Estimated Free Energy of Binding    =   -8.63 kcal/mol  [=(1)+(2)+(3)-(4)]
DOCKED: USER    Estimated Inhibition Constant, Ki   =  473.58 nM (nanomolar)  [Temperature = 298.15 K]
DOCKED: USER    
DOCKED: USER    (1) Final Intermolecular Energy     =  -11.31 kcal/mol
DOCKED: USER        vdW + Hbond + desolv Energy     =  -11.31 kcal/mol
DOCKED: USER        Electrostatic Energy            =   +0.00 kcal/mol
DOCKED: USER    (2) Final Total Internal Energy     =   -1.27 kcal/mol
DOCKED: USER    (3) Torsional Free Energy           =   +2.68 kcal/mol
DOCKED: USER    (4) Unbound System's Energy  [=(2)] =   -1.27 kcal/mol
DOCKED: USER    
DOCKED: USER    
DOCKED: USER    NEWDPF move ligand.pdbqt
DOCKED: USER    NEWDPF about 0.056000 -0.347000 0.144000
DOCKED: USER    NEWDPF tran0 24.349914 -16.936050 -2.899249
DOCKED: USER    NEWDPF quaternion0 -0.098809 -0.270986 -0.754972 -0.588915
DOCKED: USER    NEWDPF axisangle0 -0.122258 -0.335298 -0.934146 -107.839841
DOCKED: USER    NEWDPF quat0 -0.122258 -0.335298 -0.934146 -107.839841
DOCKED: USER    NEWDPF dihe0 7.68 175.07 166.41 47.26 -83.16 139.14 -24.78 28.83 88.01 
DOCKED: USER  keepresnum = 1 
DOCKED: USER  
DOCKED: REMARK  Name = 
DOCKED: REMARK  9 active torsions:
DOCKED: REMARK  status: ('A' for Active; 'I' for Inactive)
DOCKED: REMARK    1  A    between atoms: C_2  and  C_10
DOCKED: REMARK    2  A    between atoms: N_3  and  C_4
DOCKED: REMARK    3  A    between atoms: C_10  and  C_11
DOCKED: REMARK    4  A    between atoms: C_11  and  C_12
DOCKED: REMARK    5  A    between atoms: C_12  and  C_13
DOCKED: REMARK    6  A    between atoms: C_13  and  C_14
DOCKED: REMARK    7  A    between atoms: C_14  and  C_15
DOCKED: REMARK    8  A    between atoms: C_15  and  C_16
DOCKED: REMARK    9  A    between atoms: N_17  and  O_18
DOCKED: REMARK                            x       y       z     vdW  Elec       q    Type
DOCKED: REMARK                         _______ _______ _______ _____ _____    ______ ____
DOCKED: USER                              x       y       z     vdW  Elec       q    Type
DOCKED: USER                           _______ _______ _______ _____ _____    ______ ____
DOCKED: ROOT
DOCKED: ATOM      1  C   UNL     1      26.694 -16.513  -1.797 -0.45 -0.00    +0.000 C 
DOCKED: ENDROOT
DOCKED: BRANCH   1   3
DOCKED: ATOM      2  O   UNL     1      25.509 -14.450  -1.630 -0.34 -0.00    +0.000 OA
DOCKED: ATOM      3  C   UNL     1      26.344 -15.137  -2.279 -0.41 -0.00    +0.000 C 
DOCKED: ATOM      4  N   UNL     1      26.955 -14.614  -3.469 -0.31 -0.00    +0.000 N 
DOCKED: ATOM      5  H   UNL     1      27.708 -15.115  -3.860 -0.00 -0.00    +0.000 HD
DOCKED: BRANCH   4   6
DOCKED: ATOM      6  C   UNL     1      26.536 -13.407  -4.125 -0.32 -0.00    +0.000 A 
DOCKED: ATOM      7  C   UNL     1      27.471 -12.484  -4.631 -0.18 -0.00    +0.000 A 
DOCKED: ATOM      8  C   UNL     1      27.035 -11.307  -5.247 -0.17 -0.00    +0.000 A 
DOCKED: ATOM      9  C   UNL     1      25.669 -11.033  -5.351 -0.29 -0.00    +0.000 A 
DOCKED: ATOM     10  C   UNL     1      24.735 -11.932  -4.829 -0.27 -0.00    +0.000 A 
DOCKED: ATOM     11  C   UNL     1      25.166 -13.109  -4.212 -0.24 -0.00    +0.000 A 
DOCKED: ENDBRANCH   4   6
DOCKED: ENDBRANCH   1   3
DOCKED: BRANCH   1  12
DOCKED: ATOM     12  C   UNL     1      25.515 -17.468  -2.011 -0.43 -0.00    +0.000 C 
DOCKED: BRANCH  12  13
DOCKED: ATOM     13  C   UNL     1      24.621 -17.524  -0.763 -0.72 -0.00    +0.000 C 
DOCKED: BRANCH  13  14
DOCKED: ATOM     14  C   UNL     1      23.792 -18.815  -0.689 -0.77 -0.00    +0.000 C 
DOCKED: BRANCH  14  15
DOCKED: ATOM     15  C   UNL     1      22.448 -18.615   0.035 -0.77 -0.00    +0.000 C 
DOCKED: BRANCH  15  16
DOCKED: ATOM     16  C   UNL     1      21.329 -18.194  -0.926 -0.71 -0.00    +0.000 C 
DOCKED: BRANCH  16  17
DOCKED: ATOM     17  C   UNL     1      20.247 -19.232  -1.009 -0.89 -0.00    +0.000 C 
DOCKED: ATOM     18  N   UNL     1      19.369 -19.452   0.097 -0.75 -0.00    +0.000 N 
DOCKED: ATOM     19  O   UNL     1      20.097 -19.891  -2.072 -1.84 -0.00    +0.000 OA
DOCKED: ATOM     20  H   UNL     1      19.497 -18.944   0.931 -0.25 -0.00    +0.000 HD
DOCKED: BRANCH  18  21
DOCKED: ATOM     21  O   UNL     1      18.363 -20.354   0.010 -0.83 -0.00    +0.000 OA
DOCKED: ATOM     22  H   UNL     1      18.446 -20.851  -0.819 -0.36 -0.00    +0.000 HD
DOCKED: ENDBRANCH  18  21
DOCKED: ENDBRANCH  16  17
DOCKED: ENDBRANCH  15  16
DOCKED: ENDBRANCH  14  15
DOCKED: ENDBRANCH  13  14
DOCKED: ENDBRANCH  12  13
DOCKED: ENDBRANCH   1  12
DOCKED: TORSDOF 9
DOCKED: TER
DOCKED: ENDMDL
________________________________________________________________________________


	BEGINNING GENETIC ALGORITHM DOCKING 16 of 100
Run: 16 Seed: 1444344861 2072258720 [ Run 16 of 100 GA/GALS ]
Beginning LAMARCKIAN GENETIC ALGORITHM (LGA), with a maximum of 2500000 energy evaluations.

Final-Value: -13.033


	FINAL GENETIC ALGORITHM DOCKED STATE
	_______________________________________________


Detailed state:  trans 27.675 -17.066 -0.106 quatxyzw -0.599113 0.709931 -0.102093 -0.355864 center 0.056 -0.347 0.144 ntor 9 0.4555 -21.4037 -180.0000 177.0178 64.1183 175.4003 -18.2987 -92.1177 -76.0695
State:	 27.675 -17.066  -0.106  -0.641  0.760 -0.109 -138.307      0.46  -21.40 -180.00  177.02   64.12  175.40  -18.30  -92.12  -76.07

DOCKED: MODEL       16
DOCKED: USER    Run = 16
DOCKED: USER    DPF = ligand_dock.biased.dpf
DOCKED: USER  
DOCKED: USER    Estimated Free Energy of Binding    =   -8.97 kcal/mol  [=(1)+(2)+(3)-(4)]
DOCKED: USER    Estimated Inhibition Constant, Ki   =  264.59 nM (nanomolar)  [Temperature = 298.15 K]
DOCKED: USER    
DOCKED: USER    (1) Final Intermolecular Energy     =  -11.66 kcal/mol
DOCKED: USER        vdW + Hbond + desolv Energy     =  -11.66 kcal/mol
DOCKED: USER        Electrostatic Energy            =   +0.00 kcal/mol
DOCKED: USER    (2) Final Total Internal Energy     =   -1.37 kcal/mol
DOCKED: USER    (3) Torsional Free Energy           =   +2.68 kcal/mol
DOCKED: USER    (4) Unbound System's Energy  [=(2)] =   -1.37 kcal/mol
DOCKED: USER    
DOCKED: USER    
DOCKED: USER    NEWDPF move ligand.pdbqt
DOCKED: USER    NEWDPF about 0.056000 -0.347000 0.144000
DOCKED: USER    NEWDPF tran0 27.675205 -17.066119 -0.105947
DOCKED: USER    NEWDPF quaternion0 -0.599113 0.709931 -0.102093 -0.355864
DOCKED: USER    NEWDPF axisangle0 -0.641079 0.759660 -0.109244 -138.307202
DOCKED: USER    NEWDPF quat0 -0.641079 0.759660 -0.109244 -138.307202
DOCKED: USER    NEWDPF dihe0 0.46 -21.40 -180.00 177.02 64.12 175.40 -18.30 -92.12 -76.07 
DOCKED: USER  keepresnum = 1 
DOCKED: USER  
DOCKED: REMARK  Name = 
DOCKED: REMARK  9 active torsions:
DOCKED: REMARK  status: ('A' for Active; 'I' for Inactive)
DOCKED: REMARK    1  A    between atoms: C_2  and  C_10
DOCKED: REMARK    2  A    between atoms: N_3  and  C_4
DOCKED: REMARK    3  A    between atoms: C_10  and  C_11
DOCKED: REMARK    4  A    between atoms: C_11  and  C_12
DOCKED: REMARK    5  A    between atoms: C_12  and  C_13
DOCKED: REMARK    6  A    between atoms: C_13  and  C_14
DOCKED: REMARK    7  A    between atoms: C_14  and  C_15
DOCKED: REMARK    8  A    between atoms: C_15  and  C_16
DOCKED: REMARK    9  A    between atoms: N_17  and  O_18
DOCKED: REMARK                            x       y       z     vdW  Elec       q    Type
DOCKED: REMARK                         _______ _______ _______ _____ _____    ______ ____
DOCKED: USER                              x       y       z     vdW  Elec       q    Type
DOCKED: USER                           _______ _______ _______ _____ _____    ______ ____
DOCKED: ROOT
DOCKED: ATOM      1  C   UNL     1      26.238 -15.742  -1.858 -0.46 -0.00    +0.000 C 
DOCKED: ENDROOT
DOCKED: BRANCH   1   3
DOCKED: ATOM      2  O   UNL     1      28.217 -14.423  -1.682 -0.15 -0.00    +0.000 OA
DOCKED: ATOM      3  C   UNL     1      27.051 -14.638  -1.252 -0.29 -0.00    +0.000 C 
DOCKED: ATOM      4  N   UNL     1      26.503 -13.840  -0.191 -0.29 -0.00    +0.000 N 
DOCKED: ATOM      5  H   UNL     1      25.544 -13.938   0.012 -0.03 -0.00    +0.000 HD
DOCKED: BRANCH   4   6
DOCKED: ATOM      6  C   UNL     1      27.267 -12.909   0.592 -0.21 -0.00    +0.000 A 
DOCKED: ATOM      7  C   UNL     1      28.392 -13.321   1.331 -0.17 -0.00    +0.000 A 
DOCKED: ATOM      8  C   UNL     1      29.106 -12.398   2.100 -0.10 -0.00    +0.000 A 
DOCKED: ATOM      9  C   UNL     1      28.698 -11.062   2.152 -0.10 +0.00    +0.000 A 
DOCKED: ATOM     10  C   UNL     1      27.568 -10.650   1.442 -0.18 +0.00    +0.000 A 
DOCKED: ATOM     11  C   UNL     1      26.851 -11.570   0.672 -0.22 +0.00    +0.000 A 
DOCKED: ENDBRANCH   4   6
DOCKED: ENDBRANCH   1   3
DOCKED: BRANCH   1  12
DOCKED: ATOM     12  C   UNL     1      26.702 -17.101  -1.323 -0.50 -0.00    +0.000 C 
DOCKED: BRANCH  12  13
DOCKED: ATOM     13  C   UNL     1      25.719 -17.642  -0.274 -0.63 -0.00    +0.000 C 
DOCKED: BRANCH  13  14
DOCKED: ATOM     14  C   UNL     1      24.502 -18.332  -0.907 -0.75 -0.00    +0.000 C 
DOCKED: BRANCH  14  15
DOCKED: ATOM     15  C   UNL     1      23.188 -17.575  -0.644 -0.77 -0.00    +0.000 C 
DOCKED: BRANCH  15  16
DOCKED: ATOM     16  C   UNL     1      22.137 -18.458   0.041 -0.80 -0.00    +0.000 C 
DOCKED: BRANCH  16  17
DOCKED: ATOM     17  C   UNL     1      20.949 -18.697  -0.845 -0.84 -0.00    +0.000 C 
DOCKED: ATOM     18  N   UNL     1      20.970 -19.742  -1.820 -0.68 -0.00    +0.000 N 
DOCKED: ATOM     19  O   UNL     1      19.916 -17.989  -0.706 -1.89 -0.00    +0.000 OA
DOCKED: ATOM     20  H   UNL     1      21.783 -20.286  -1.935 -0.48 -0.00    +0.000 HD
DOCKED: BRANCH  18  21
DOCKED: ATOM     21  O   UNL     1      19.883 -19.991  -2.589 -1.64 -0.00    +0.000 OA
DOCKED: ATOM     22  H   UNL     1      19.177 -19.368  -2.359 -0.48 -0.00    +0.000 HD
DOCKED: ENDBRANCH  18  21
DOCKED: ENDBRANCH  16  17
DOCKED: ENDBRANCH  15  16
DOCKED: ENDBRANCH  14  15
DOCKED: ENDBRANCH  13  14
DOCKED: ENDBRANCH  12  13
DOCKED: ENDBRANCH   1  12
DOCKED: TORSDOF 9
DOCKED: TER
DOCKED: ENDMDL
________________________________________________________________________________


	BEGINNING GENETIC ALGORITHM DOCKING 17 of 100
Run: 17 Seed: 729331891 1052419822 [ Run 17 of 100 GA/GALS ]
Beginning LAMARCKIAN GENETIC ALGORITHM (LGA), with a maximum of 2500000 energy evaluations.

Final-Value: -13.870


	FINAL GENETIC ALGORITHM DOCKED STATE
	_______________________________________________


Detailed state:  trans 26.357 -16.789 -1.756 quatxyzw -0.124703 0.067050 0.732820 0.665528 center 0.056 -0.347 0.144 ntor 9 28.0381 78.5769 -104.9639 83.3840 -57.0090 134.6125 -151.9995 81.4908 171.9185
State:	 26.357 -16.789  -1.756  -0.167  0.090  0.982 96.554     28.04   78.58 -104.96   83.38  -57.01  134.61 -152.00   81.49  171.92

DOCKED: MODEL       17
DOCKED: USER    Run = 17
DOCKED: USER    DPF = ligand_dock.biased.dpf
DOCKED: USER  
DOCKED: USER    Estimated Free Energy of Binding    =  -10.11 kcal/mol  [=(1)+(2)+(3)-(4)]
DOCKED: USER    Estimated Inhibition Constant, Ki   =   38.77 nM (nanomolar)  [Temperature = 298.15 K]
DOCKED: USER    
DOCKED: USER    (1) Final Intermolecular Energy     =  -12.80 kcal/mol
DOCKED: USER        vdW + Hbond + desolv Energy     =  -12.80 kcal/mol
DOCKED: USER        Electrostatic Energy            =   +0.00 kcal/mol
DOCKED: USER    (2) Final Total Internal Energy     =   -1.07 kcal/mol
DOCKED: USER    (3) Torsional Free Energy           =   +2.68 kcal/mol
DOCKED: USER    (4) Unbound System's Energy  [=(2)] =   -1.07 kcal/mol
DOCKED: USER    
DOCKED: USER    
DOCKED: USER    NEWDPF move ligand.pdbqt
DOCKED: USER    NEWDPF about 0.056000 -0.347000 0.144000
DOCKED: USER    NEWDPF tran0 26.356797 -16.789188 -1.755846
DOCKED: USER    NEWDPF quaternion0 -0.124703 0.067050 0.732820 0.665528
DOCKED: USER    NEWDPF axisangle0 -0.167079 0.089835 0.981842 96.554309
DOCKED: USER    NEWDPF quat0 -0.167079 0.089835 0.981842 96.554309
DOCKED: USER    NEWDPF dihe0 28.04 78.58 -104.96 83.38 -57.01 134.61 -152.00 81.49 171.92 
DOCKED: USER  keepresnum = 1 
DOCKED: USER  
DOCKED: REMARK  Name = 
DOCKED: REMARK  9 active torsions:
DOCKED: REMARK  status: ('A' for Active; 'I' for Inactive)
DOCKED: REMARK    1  A    between atoms: C_2  and  C_10
DOCKED: REMARK    2  A    between atoms: N_3  and  C_4
DOCKED: REMARK    3  A    between atoms: C_10  and  C_11
DOCKED: REMARK    4  A    between atoms: C_11  and  C_12
DOCKED: REMARK    5  A    between atoms: C_12  and  C_13
DOCKED: REMARK    6  A    between atoms: C_13  and  C_14
DOCKED: REMARK    7  A    between atoms: C_14  and  C_15
DOCKED: REMARK    8  A    between atoms: C_15  and  C_16
DOCKED: REMARK    9  A    between atoms: N_17  and  O_18
DOCKED: REMARK                            x       y       z     vdW  Elec       q    Type
DOCKED: REMARK                         _______ _______ _______ _____ _____    ______ ____
DOCKED: USER                              x       y       z     vdW  Elec       q    Type
DOCKED: USER                           _______ _______ _______ _____ _____    ______ ____
DOCKED: ROOT
DOCKED: ATOM      1  C   UNL     1      28.560 -16.593  -0.344 -0.28 -0.00    +0.000 C 
DOCKED: ENDROOT
DOCKED: BRANCH   1   3
DOCKED: ATOM      2  O   UNL     1      27.482 -14.567  -0.992 -0.22 -0.00    +0.000 OA
DOCKED: ATOM      3  C   UNL     1      27.901 -15.281  -0.041 -0.28 -0.00    +0.000 C 
DOCKED: ATOM      4  N   UNL     1      27.755 -14.846   1.320 -0.29 -0.00    +0.000 N 
DOCKED: ATOM      5  H   UNL     1      27.956 -15.492   2.036 -0.89 -0.00    +0.000 HD
DOCKED: BRANCH   4   6
DOCKED: ATOM      6  C   UNL     1      27.336 -13.526   1.702 -0.27 -0.00    +0.000 A 
DOCKED: ATOM      7  C   UNL     1      26.292 -12.865   1.028 -0.32 -0.00    +0.000 A 
DOCKED: ATOM      8  C   UNL     1      25.916 -11.572   1.408 -0.35 +0.00    +0.000 A 
DOCKED: ATOM      9  C   UNL     1      26.585 -10.924   2.449 -0.28 +0.00    +0.000 A 
DOCKED: ATOM     10  C   UNL     1      27.639 -11.564   3.107 -0.25 +0.00    +0.000 A 
DOCKED: ATOM     11  C   UNL     1      28.018 -12.856   2.730 -0.24 -0.00    +0.000 A 
DOCKED: ENDBRANCH   4   6
DOCKED: ENDBRANCH   1   3
DOCKED: BRANCH   1  12
DOCKED: ATOM     12  C   UNL     1      27.625 -17.481  -1.171 -0.38 -0.00    +0.000 C 
DOCKED: BRANCH  12  13
DOCKED: ATOM     13  C   UNL     1      26.224 -16.859  -1.270 -0.54 -0.00    +0.000 C 
DOCKED: BRANCH  13  14
DOCKED: ATOM     14  C   UNL     1      25.201 -17.563  -0.367 -0.65 -0.00    +0.000 C 
DOCKED: BRANCH  14  15
DOCKED: ATOM     15  C   UNL     1      23.757 -17.413  -0.878 -0.74 -0.00    +0.000 C 
DOCKED: BRANCH  15  16
DOCKED: ATOM     16  C   UNL     1      23.144 -18.758  -1.287 -0.79 -0.00    +0.000 C 
DOCKED: BRANCH  16  17
DOCKED: ATOM     17  C   UNL     1      21.651 -18.760  -1.130 -0.78 -0.00    +0.000 C 
DOCKED: ATOM     18  N   UNL     1      20.849 -19.703  -1.844 -0.72 -0.00    +0.000 N 
DOCKED: ATOM     19  O   UNL     1      21.107 -17.942  -0.341 -1.87 -0.00    +0.000 OA
DOCKED: ATOM     20  H   UNL     1      21.276 -20.333  -2.470 -0.53 -0.00    +0.000 HD
DOCKED: BRANCH  18  21
DOCKED: ATOM     21  O   UNL     1      19.506 -19.739  -1.670 -1.62 -0.00    +0.000 OA
DOCKED: ATOM     22  H   UNL     1      19.190 -18.857  -1.418 -0.50 -0.00    +0.000 HD
DOCKED: ENDBRANCH  18  21
DOCKED: ENDBRANCH  16  17
DOCKED: ENDBRANCH  15  16
DOCKED: ENDBRANCH  14  15
DOCKED: ENDBRANCH  13  14
DOCKED: ENDBRANCH  12  13
DOCKED: ENDBRANCH   1  12
DOCKED: TORSDOF 9
DOCKED: TER
DOCKED: ENDMDL
________________________________________________________________________________


	BEGINNING GENETIC ALGORITHM DOCKING 18 of 100
Run: 18 Seed: 402434597 2004888514 [ Run 18 of 100 GA/GALS ]
Beginning LAMARCKIAN GENETIC ALGORITHM (LGA), with a maximum of 2500000 energy evaluations.

Final-Value: -13.033


	FINAL GENETIC ALGORITHM DOCKED STATE
	_______________________________________________


Detailed state:  trans 28.024 -17.522 -2.464 quatxyzw -0.211658 0.812776 0.408273 0.357645 center 0.056 -0.347 0.144 ntor 9 1.0799 167.3218 -177.8498 71.8440 -20.2128 144.3244 90.6332 104.7413 102.3151
State:	 28.024 -17.522  -2.464  -0.227  0.870  0.437 138.089      1.08  167.32 -177.85   71.84  -20.21  144.32   90.63  104.74  102.32

DOCKED: MODEL       18
DOCKED: USER    Run = 18
DOCKED: USER    DPF = ligand_dock.biased.dpf
DOCKED: USER  
DOCKED: USER    Estimated Free Energy of Binding    =   -9.04 kcal/mol  [=(1)+(2)+(3)-(4)]
DOCKED: USER    Estimated Inhibition Constant, Ki   =  236.96 nM (nanomolar)  [Temperature = 298.15 K]
DOCKED: USER    
DOCKED: USER    (1) Final Intermolecular Energy     =  -11.72 kcal/mol
DOCKED: USER        vdW + Hbond + desolv Energy     =  -11.72 kcal/mol
DOCKED: USER        Electrostatic Energy            =   +0.00 kcal/mol
DOCKED: USER    (2) Final Total Internal Energy     =   -1.31 kcal/mol
DOCKED: USER    (3) Torsional Free Energy           =   +2.68 kcal/mol
DOCKED: USER    (4) Unbound System's Energy  [=(2)] =   -1.31 kcal/mol
DOCKED: USER    
DOCKED: USER    
DOCKED: USER    NEWDPF move ligand.pdbqt
DOCKED: USER    NEWDPF about 0.056000 -0.347000 0.144000
DOCKED: USER    NEWDPF tran0 28.023578 -17.522443 -2.463745
DOCKED: USER    NEWDPF quaternion0 -0.211658 0.812776 0.408273 0.357645
DOCKED: USER    NEWDPF axisangle0 -0.226649 0.870342 0.437190 138.088750
DOCKED: USER    NEWDPF quat0 -0.226649 0.870342 0.437190 138.088750
DOCKED: USER    NEWDPF dihe0 1.08 167.32 -177.85 71.84 -20.21 144.32 90.63 104.74 102.32 
DOCKED: USER  keepresnum = 1 
DOCKED: USER  
DOCKED: REMARK  Name = 
DOCKED: REMARK  9 active torsions:
DOCKED: REMARK  status: ('A' for Active; 'I' for Inactive)
DOCKED: REMARK    1  A    between atoms: C_2  and  C_10
DOCKED: REMARK    2  A    between atoms: N_3  and  C_4
DOCKED: REMARK    3  A    between atoms: C_10  and  C_11
DOCKED: REMARK    4  A    between atoms: C_11  and  C_12
DOCKED: REMARK    5  A    between atoms: C_12  and  C_13
DOCKED: REMARK    6  A    between atoms: C_13  and  C_14
DOCKED: REMARK    7  A    between atoms: C_14  and  C_15
DOCKED: REMARK    8  A    between atoms: C_15  and  C_16
DOCKED: REMARK    9  A    between atoms: N_17  and  O_18
DOCKED: REMARK                            x       y       z     vdW  Elec       q    Type
DOCKED: REMARK                         _______ _______ _______ _____ _____    ______ ____
DOCKED: USER                              x       y       z     vdW  Elec       q    Type
DOCKED: USER                           _______ _______ _______ _____ _____    ______ ____
DOCKED: ROOT
DOCKED: ATOM      1  C   UNL     1      27.669 -15.395  -0.968 -0.29 -0.00    +0.000 C 
DOCKED: ENDROOT
DOCKED: BRANCH   1   3
DOCKED: ATOM      2  O   UNL     1      28.644 -13.589  -2.182 -0.10 -0.00    +0.000 OA
DOCKED: ATOM      3  C   UNL     1      28.252 -14.787  -2.208 -0.19 -0.00    +0.000 C 
DOCKED: ATOM      4  N   UNL     1      28.356 -15.565  -3.411 -0.24 -0.00    +0.000 N 
DOCKED: ATOM      5  H   UNL     1      28.181 -16.533  -3.352 -0.02 -0.00    +0.000 HD
DOCKED: BRANCH   4   6
DOCKED: ATOM      6  C   UNL     1      28.699 -15.020  -4.695 -0.26 -0.00    +0.000 A 
DOCKED: ATOM      7  C   UNL     1      29.702 -15.600  -5.494 -0.27 -0.00    +0.000 A 
DOCKED: ATOM      8  C   UNL     1      30.029 -15.036  -6.732 -0.28 -0.00    +0.000 A 
DOCKED: ATOM      9  C   UNL     1      29.373 -13.885  -7.175 -0.28 -0.00    +0.000 A 
DOCKED: ATOM     10  C   UNL     1      28.393 -13.289  -6.376 -0.24 -0.00    +0.000 A 
DOCKED: ATOM     11  C   UNL     1      28.063 -13.848  -5.139 -0.25 -0.00    +0.000 A 
DOCKED: ENDBRANCH   4   6
DOCKED: ENDBRANCH   1   3
DOCKED: BRANCH   1  12
DOCKED: ATOM     12  C   UNL     1      27.406 -16.890  -1.181 -0.44 -0.00    +0.000 C 
DOCKED: BRANCH  12  13
DOCKED: ATOM     13  C   UNL     1      26.125 -17.110  -1.999 -0.42 -0.00    +0.000 C 
DOCKED: BRANCH  13  14
DOCKED: ATOM     14  C   UNL     1      24.854 -17.020  -1.142 -0.66 -0.00    +0.000 C 
DOCKED: BRANCH  14  15
DOCKED: ATOM     15  C   UNL     1      23.759 -17.999  -1.602 -0.69 -0.00    +0.000 C 
DOCKED: BRANCH  15  16
DOCKED: ATOM     16  C   UNL     1      22.836 -18.418  -0.450 -0.83 -0.00    +0.000 C 
DOCKED: BRANCH  16  17
DOCKED: ATOM     17  C   UNL     1      21.402 -18.501  -0.888 -0.81 -0.00    +0.000 C 
DOCKED: ATOM     18  N   UNL     1      20.893 -19.701  -1.475 -0.77 -0.00    +0.000 N 
DOCKED: ATOM     19  O   UNL     1      20.638 -17.515  -0.711 -2.11 +0.00    +0.000 OA
DOCKED: ATOM     20  H   UNL     1      21.495 -20.466  -1.623 -0.34 -0.00    +0.000 HD
DOCKED: BRANCH  18  21
DOCKED: ATOM     21  O   UNL     1      19.589 -19.796  -1.828 -1.68 -0.00    +0.000 OA
DOCKED: ATOM     22  H   UNL     1      19.140 -18.959  -1.634 -0.56 -0.00    +0.000 HD
DOCKED: ENDBRANCH  18  21
DOCKED: ENDBRANCH  16  17
DOCKED: ENDBRANCH  15  16
DOCKED: ENDBRANCH  14  15
DOCKED: ENDBRANCH  13  14
DOCKED: ENDBRANCH  12  13
DOCKED: ENDBRANCH   1  12
DOCKED: TORSDOF 9
DOCKED: TER
DOCKED: ENDMDL
________________________________________________________________________________


	BEGINNING GENETIC ALGORITHM DOCKING 19 of 100
Run: 19 Seed: 1763059357 1894988475 [ Run 19 of 100 GA/GALS ]
Beginning LAMARCKIAN GENETIC ALGORITHM (LGA), with a maximum of 2500000 energy evaluations.

Final-Value: -12.584


	FINAL GENETIC ALGORITHM DOCKED STATE
	_______________________________________________


Detailed state:  trans 25.924 -14.541 0.344 quatxyzw 0.056819 0.438495 -0.663105 -0.603974 center 0.056 -0.347 0.144 ntor 9 23.2884 -69.1294 -66.2148 -172.1306 148.0645 -130.7119 174.1291 69.1198 102.2754
State:	 25.924 -14.541   0.344   0.071  0.550 -0.832 -105.690     23.29  -69.13  -66.21 -172.13  148.06 -130.71  174.13   69.12  102.28

DOCKED: MODEL       19
DOCKED: USER    Run = 19
DOCKED: USER    DPF = ligand_dock.biased.dpf
DOCKED: USER  
DOCKED: USER    Estimated Free Energy of Binding    =   -8.55 kcal/mol  [=(1)+(2)+(3)-(4)]
DOCKED: USER    Estimated Inhibition Constant, Ki   =  536.10 nM (nanomolar)  [Temperature = 298.15 K]
DOCKED: USER    
DOCKED: USER    (1) Final Intermolecular Energy     =  -11.24 kcal/mol
DOCKED: USER        vdW + Hbond + desolv Energy     =  -11.24 kcal/mol
DOCKED: USER        Electrostatic Energy            =   +0.00 kcal/mol
DOCKED: USER    (2) Final Total Internal Energy     =   -1.34 kcal/mol
DOCKED: USER    (3) Torsional Free Energy           =   +2.68 kcal/mol
DOCKED: USER    (4) Unbound System's Energy  [=(2)] =   -1.34 kcal/mol
DOCKED: USER    
DOCKED: USER    
DOCKED: USER    NEWDPF move ligand.pdbqt
DOCKED: USER    NEWDPF about 0.056000 -0.347000 0.144000
DOCKED: USER    NEWDPF tran0 25.923640 -14.540812 0.344295
DOCKED: USER    NEWDPF quaternion0 0.056819 0.438495 -0.663105 -0.603974
DOCKED: USER    NEWDPF axisangle0 0.071290 0.550180 -0.831997 -105.689842
DOCKED: USER    NEWDPF quat0 0.071290 0.550180 -0.831997 -105.689842
DOCKED: USER    NEWDPF dihe0 23.29 -69.13 -66.21 -172.13 148.06 -130.71 174.13 69.12 102.28 
DOCKED: USER  keepresnum = 1 
DOCKED: USER  
DOCKED: REMARK  Name = 
DOCKED: REMARK  9 active torsions:
DOCKED: REMARK  status: ('A' for Active; 'I' for Inactive)
DOCKED: REMARK    1  A    between atoms: C_2  and  C_10
DOCKED: REMARK    2  A    between atoms: N_3  and  C_4
DOCKED: REMARK    3  A    between atoms: C_10  and  C_11
DOCKED: REMARK    4  A    between atoms: C_11  and  C_12
DOCKED: REMARK    5  A    between atoms: C_12  and  C_13
DOCKED: REMARK    6  A    between atoms: C_13  and  C_14
DOCKED: REMARK    7  A    between atoms: C_14  and  C_15
DOCKED: REMARK    8  A    between atoms: C_15  and  C_16
DOCKED: REMARK    9  A    between atoms: N_17  and  O_18
DOCKED: REMARK                            x       y       z     vdW  Elec       q    Type
DOCKED: REMARK                         _______ _______ _______ _____ _____    ______ ____
DOCKED: USER                              x       y       z     vdW  Elec       q    Type
DOCKED: USER                           _______ _______ _______ _____ _____    ______ ____
DOCKED: ROOT
DOCKED: ATOM      1  C   UNL     1      28.493 -14.359  -0.159 -0.18 -0.00    +0.000 C 
DOCKED: ENDROOT
DOCKED: BRANCH   1   3
DOCKED: ATOM      2  O   UNL     1      28.113 -12.508   1.295 -0.16 -0.00    +0.000 OA
DOCKED: ATOM      3  C   UNL     1      28.416 -13.728   1.198 -0.21 -0.00    +0.000 C 
DOCKED: ATOM      4  N   UNL     1      28.689 -14.510   2.372 -0.23 -0.00    +0.000 N 
DOCKED: ATOM      5  H   UNL     1      28.774 -15.486   2.268 -1.72 -0.00    +0.000 HD
DOCKED: BRANCH   4   6
DOCKED: ATOM      6  C   UNL     1      28.849 -13.956   3.688 -0.33 -0.00    +0.000 A 
DOCKED: ATOM      7  C   UNL     1      30.115 -13.860   4.295 -0.26 -0.00    +0.000 A 
DOCKED: ATOM      8  C   UNL     1      30.239 -13.334   5.585 -0.26 -0.00    +0.000 A 
DOCKED: ATOM      9  C   UNL     1      29.105 -12.916   6.285 -0.35 -0.00    +0.000 A 
DOCKED: ATOM     10  C   UNL     1      27.841 -13.031   5.699 -0.38 -0.00    +0.000 A 
DOCKED: ATOM     11  C   UNL     1      27.713 -13.556   4.410 -0.47 -0.00    +0.000 A 
DOCKED: ENDBRANCH   4   6
DOCKED: ENDBRANCH   1   3
DOCKED: BRANCH   1  12
DOCKED: ATOM     12  C   UNL     1      27.132 -14.942  -0.554 -0.31 -0.00    +0.000 C 
DOCKED: BRANCH  12  13
DOCKED: ATOM     13  C   UNL     1      26.883 -16.283   0.153 -0.27 -0.00    +0.000 C 
DOCKED: BRANCH  13  14
DOCKED: ATOM     14  C   UNL     1      26.758 -17.455  -0.831 -0.54 -0.00    +0.000 C 
DOCKED: BRANCH  14  15
DOCKED: ATOM     15  C   UNL     1      25.600 -17.271  -1.828 -0.55 -0.00    +0.000 C 
DOCKED: BRANCH  15  16
DOCKED: ATOM     16  C   UNL     1      24.356 -16.663  -1.166 -0.60 -0.00    +0.000 C 
DOCKED: BRANCH  16  17
DOCKED: ATOM     17  C   UNL     1      23.296 -17.697  -0.919 -0.77 -0.00    +0.000 C 
DOCKED: ATOM     18  N   UNL     1      21.944 -17.304  -0.675 -0.73 -0.00    +0.000 N 
DOCKED: ATOM     19  O   UNL     1      23.598 -18.920  -0.958 -0.83 -0.00    +0.000 OA
DOCKED: ATOM     20  H   UNL     1      21.713 -16.347  -0.633 -0.06 -0.00    +0.000 HD
DOCKED: BRANCH  18  21
DOCKED: ATOM     21  O   UNL     1      20.976 -18.235  -0.499 -1.98 -0.00    +0.000 OA
DOCKED: ATOM     22  H   UNL     1      21.378 -19.066  -0.204 -0.04 -0.00    +0.000 HD
DOCKED: ENDBRANCH  18  21
DOCKED: ENDBRANCH  16  17
DOCKED: ENDBRANCH  15  16
DOCKED: ENDBRANCH  14  15
DOCKED: ENDBRANCH  13  14
DOCKED: ENDBRANCH  12  13
DOCKED: ENDBRANCH   1  12
DOCKED: TORSDOF 9
DOCKED: TER
DOCKED: ENDMDL
________________________________________________________________________________


	BEGINNING GENETIC ALGORITHM DOCKING 20 of 100
Run: 20 Seed: 2067055507 1915187990 [ Run 20 of 100 GA/GALS ]
Beginning LAMARCKIAN GENETIC ALGORITHM (LGA), with a maximum of 2500000 energy evaluations.

Final-Value: -14.034


	FINAL GENETIC ALGORITHM DOCKED STATE
	_______________________________________________


Detailed state:  trans 25.930 -17.619 1.077 quatxyzw 0.438606 -0.264348 0.503041 0.696200 center 0.056 -0.347 0.144 ntor 9 -6.5939 13.8758 -113.5840 134.4342 147.5765 116.8116 158.0588 -120.1676 -120.2167
State:	 25.930 -17.619   1.077   0.611 -0.368  0.701 91.754     -6.59   13.88 -113.58  134.43  147.58  116.81  158.06 -120.17 -120.22

DOCKED: MODEL       20
DOCKED: USER    Run = 20
DOCKED: USER    DPF = ligand_dock.biased.dpf
DOCKED: USER  
DOCKED: USER    Estimated Free Energy of Binding    =   -9.96 kcal/mol  [=(1)+(2)+(3)-(4)]
DOCKED: USER    Estimated Inhibition Constant, Ki   =   49.99 nM (nanomolar)  [Temperature = 298.15 K]
DOCKED: USER    
DOCKED: USER    (1) Final Intermolecular Energy     =  -12.65 kcal/mol
DOCKED: USER        vdW + Hbond + desolv Energy     =  -12.65 kcal/mol
DOCKED: USER        Electrostatic Energy            =   +0.00 kcal/mol
DOCKED: USER    (2) Final Total Internal Energy     =   -1.39 kcal/mol
DOCKED: USER    (3) Torsional Free Energy           =   +2.68 kcal/mol
DOCKED: USER    (4) Unbound System's Energy  [=(2)] =   -1.39 kcal/mol
DOCKED: USER    
DOCKED: USER    
DOCKED: USER    NEWDPF move ligand.pdbqt
DOCKED: USER    NEWDPF about 0.056000 -0.347000 0.144000
DOCKED: USER    NEWDPF tran0 25.930227 -17.618591 1.077218
DOCKED: USER    NEWDPF quaternion0 0.438606 -0.264348 0.503041 0.696200
DOCKED: USER    NEWDPF axisangle0 0.611002 -0.368252 0.700762 91.754110
DOCKED: USER    NEWDPF quat0 0.611002 -0.368252 0.700762 91.754110
DOCKED: USER    NEWDPF dihe0 -6.59 13.88 -113.58 134.43 147.58 116.81 158.06 -120.17 -120.22 
DOCKED: USER  keepresnum = 1 
DOCKED: USER  
DOCKED: REMARK  Name = 
DOCKED: REMARK  9 active torsions:
DOCKED: REMARK  status: ('A' for Active; 'I' for Inactive)
DOCKED: REMARK    1  A    between atoms: C_2  and  C_10
DOCKED: REMARK    2  A    between atoms: N_3  and  C_4
DOCKED: REMARK    3  A    between atoms: C_10  and  C_11
DOCKED: REMARK    4  A    between atoms: C_11  and  C_12
DOCKED: REMARK    5  A    between atoms: C_12  and  C_13
DOCKED: REMARK    6  A    between atoms: C_13  and  C_14
DOCKED: REMARK    7  A    between atoms: C_14  and  C_15
DOCKED: REMARK    8  A    between atoms: C_15  and  C_16
DOCKED: REMARK    9  A    between atoms: N_17  and  O_18
DOCKED: REMARK                            x       y       z     vdW  Elec       q    Type
DOCKED: REMARK                         _______ _______ _______ _____ _____    ______ ____
DOCKED: USER                              x       y       z     vdW  Elec       q    Type
DOCKED: USER                           _______ _______ _______ _____ _____    ______ ____
DOCKED: ROOT
DOCKED: ATOM      1  C   UNL     1      27.506 -16.618  -0.768 -0.42 -0.00    +0.000 C 
DOCKED: ENDROOT
DOCKED: BRANCH   1   3
DOCKED: ATOM      2  O   UNL     1      26.116 -14.688  -0.593 -0.39 -0.00    +0.000 OA
DOCKED: ATOM      3  C   UNL     1      27.039 -15.373  -0.075 -0.34 -0.00    +0.000 C 
DOCKED: ATOM      4  N   UNL     1      27.646 -14.968   1.163 -0.28 -0.00    +0.000 N 
DOCKED: ATOM      5  H   UNL     1      28.253 -15.602   1.609 -0.94 -0.00    +0.000 HD
DOCKED: BRANCH   4   6
DOCKED: ATOM      6  C   UNL     1      27.421 -13.695   1.789 -0.28 -0.00    +0.000 A 
DOCKED: ATOM      7  C   UNL     1      26.989 -12.579   1.048 -0.25 -0.00    +0.000 A 
DOCKED: ATOM      8  C   UNL     1      26.798 -11.346   1.681 -0.28 +0.00    +0.000 A 
DOCKED: ATOM      9  C   UNL     1      27.048 -11.212   3.048 -0.25 +0.00    +0.000 A 
DOCKED: ATOM     10  C   UNL     1      27.501 -12.309   3.786 -0.24 +0.00    +0.000 A 
DOCKED: ATOM     11  C   UNL     1      27.694 -13.542   3.158 -0.35 -0.00    +0.000 A 
DOCKED: ENDBRANCH   4   6
DOCKED: ENDBRANCH   1   3
DOCKED: BRANCH   1  12
DOCKED: ATOM     12  C   UNL     1      27.005 -17.861  -0.024 -0.43 -0.00    +0.000 C 
DOCKED: BRANCH  12  13
DOCKED: ATOM     13  C   UNL     1      25.471 -17.880   0.042 -0.62 -0.00    +0.000 C 
DOCKED: BRANCH  13  14
DOCKED: ATOM     14  C   UNL     1      24.819 -17.740  -1.342 -0.70 -0.00    +0.000 C 
DOCKED: BRANCH  14  15
DOCKED: ATOM     15  C   UNL     1      23.292 -17.567  -1.262 -0.68 -0.00    +0.000 C 
DOCKED: BRANCH  15  16
DOCKED: ATOM     16  C   UNL     1      22.662 -18.467  -0.191 -0.81 -0.00    +0.000 C 
DOCKED: BRANCH  16  17
DOCKED: ATOM     17  C   UNL     1      21.209 -18.724  -0.465 -0.82 -0.00    +0.000 C 
DOCKED: ATOM     18  N   UNL     1      20.595 -19.942  -0.037 -0.73 -0.00    +0.000 N 
DOCKED: ATOM     19  O   UNL     1      20.521 -17.846  -1.051 -2.21 -0.00    +0.000 OA
DOCKED: ATOM     20  H   UNL     1      21.138 -20.632   0.411 -0.49 -0.00    +0.000 HD
DOCKED: BRANCH  18  21
DOCKED: ATOM     21  O   UNL     1      19.273 -20.158  -0.241 -0.90 -0.00    +0.000 OA
DOCKED: ATOM     22  H   UNL     1      18.866 -19.352  -0.593 -0.25 -0.00    +0.000 HD
DOCKED: ENDBRANCH  18  21
DOCKED: ENDBRANCH  16  17
DOCKED: ENDBRANCH  15  16
DOCKED: ENDBRANCH  14  15
DOCKED: ENDBRANCH  13  14
DOCKED: ENDBRANCH  12  13
DOCKED: ENDBRANCH   1  12
DOCKED: TORSDOF 9
DOCKED: TER
DOCKED: ENDMDL
________________________________________________________________________________


	BEGINNING GENETIC ALGORITHM DOCKING 21 of 100
Run: 21 Seed: 361516318 1936734163 [ Run 21 of 100 GA/GALS ]
Beginning LAMARCKIAN GENETIC ALGORITHM (LGA), with a maximum of 2500000 energy evaluations.

Final-Value: -13.773


	FINAL GENETIC ALGORITHM DOCKED STATE
	_______________________________________________


Detailed state:  trans 27.777 -16.903 -1.521 quatxyzw -0.291914 0.628510 0.343643 -0.633775 center 0.056 -0.347 0.144 ntor 9 12.3731 -61.1354 179.6591 141.6492 -3.3309 58.6460 -138.3127 140.2197 -57.8068
State:	 27.777 -16.903  -1.521  -0.377  0.813  0.444 -101.342     12.37  -61.14  179.66  141.65   -3.33   58.65 -138.31  140.22  -57.81

DOCKED: MODEL       21
DOCKED: USER    Run = 21
DOCKED: USER    DPF = ligand_dock.biased.dpf
DOCKED: USER  
DOCKED: USER    Estimated Free Energy of Binding    =   -9.76 kcal/mol  [=(1)+(2)+(3)-(4)]
DOCKED: USER    Estimated Inhibition Constant, Ki   =   70.16 nM (nanomolar)  [Temperature = 298.15 K]
DOCKED: USER    
DOCKED: USER    (1) Final Intermolecular Energy     =  -12.44 kcal/mol
DOCKED: USER        vdW + Hbond + desolv Energy     =  -12.44 kcal/mol
DOCKED: USER        Electrostatic Energy            =   +0.00 kcal/mol
DOCKED: USER    (2) Final Total Internal Energy     =   -1.33 kcal/mol
DOCKED: USER    (3) Torsional Free Energy           =   +2.68 kcal/mol
DOCKED: USER    (4) Unbound System's Energy  [=(2)] =   -1.33 kcal/mol
DOCKED: USER    
DOCKED: USER    
DOCKED: USER    NEWDPF move ligand.pdbqt
DOCKED: USER    NEWDPF about 0.056000 -0.347000 0.144000
DOCKED: USER    NEWDPF tran0 27.776777 -16.903079 -1.520955
DOCKED: USER    NEWDPF quaternion0 -0.291914 0.628510 0.343643 -0.633775
DOCKED: USER    NEWDPF axisangle0 -0.377385 0.812535 0.444261 -101.341611
DOCKED: USER    NEWDPF quat0 -0.377385 0.812535 0.444261 -101.341611
DOCKED: USER    NEWDPF dihe0 12.37 -61.14 179.66 141.65 -3.33 58.65 -138.31 140.22 -57.81 
DOCKED: USER  keepresnum = 1 
DOCKED: USER  
DOCKED: REMARK  Name = 
DOCKED: REMARK  9 active torsions:
DOCKED: REMARK  status: ('A' for Active; 'I' for Inactive)
DOCKED: REMARK    1  A    between atoms: C_2  and  C_10
DOCKED: REMARK    2  A    between atoms: N_3  and  C_4
DOCKED: REMARK    3  A    between atoms: C_10  and  C_11
DOCKED: REMARK    4  A    between atoms: C_11  and  C_12
DOCKED: REMARK    5  A    between atoms: C_12  and  C_13
DOCKED: REMARK    6  A    between atoms: C_13  and  C_14
DOCKED: REMARK    7  A    between atoms: C_14  and  C_15
DOCKED: REMARK    8  A    between atoms: C_15  and  C_16
DOCKED: REMARK    9  A    between atoms: N_17  and  O_18
DOCKED: REMARK                            x       y       z     vdW  Elec       q    Type
DOCKED: REMARK                         _______ _______ _______ _____ _____    ______ ____
DOCKED: USER                              x       y       z     vdW  Elec       q    Type
DOCKED: USER                           _______ _______ _______ _____ _____    ______ ____
DOCKED: ROOT
DOCKED: ATOM      1  C   UNL     1      26.255 -14.880  -0.830 -0.37 -0.00    +0.000 C 
DOCKED: ENDROOT
DOCKED: BRANCH   1   3
DOCKED: ATOM      2  O   UNL     1      27.381 -16.239   0.773 -0.37 -0.00    +0.000 OA
DOCKED: ATOM      3  C   UNL     1      27.069 -15.071   0.414 -0.27 -0.00    +0.000 C 
DOCKED: ATOM      4  N   UNL     1      27.482 -13.932   1.186 -0.27 -0.00    +0.000 N 
DOCKED: ATOM      5  H   UNL     1      27.349 -13.037   0.796 +0.00 -0.00    +0.000 HD
DOCKED: BRANCH   4   6
DOCKED: ATOM      6  C   UNL     1      28.075 -14.018   2.491 -0.29 -0.00    +0.000 A 
DOCKED: ATOM      7  C   UNL     1      27.309 -13.838   3.658 -0.42 -0.00    +0.000 A 
DOCKED: ATOM      8  C   UNL     1      27.916 -13.908   4.916 -0.51 -0.00    +0.000 A 
DOCKED: ATOM      9  C   UNL     1      29.290 -14.141   5.021 -0.37 -0.00    +0.000 A 
DOCKED: ATOM     10  C   UNL     1      30.062 -14.295   3.867 -0.28 -0.00    +0.000 A 
DOCKED: ATOM     11  C   UNL     1      29.459 -14.226   2.608 -0.17 -0.00    +0.000 A 
DOCKED: ENDBRANCH   4   6
DOCKED: ENDBRANCH   1   3
DOCKED: BRANCH   1  12
DOCKED: ATOM     12  C   UNL     1      26.762 -15.800  -1.946 -0.40 -0.00    +0.000 C 
DOCKED: BRANCH  12  13
DOCKED: ATOM     13  C   UNL     1      25.643 -16.727  -2.442 -0.51 -0.00    +0.000 C 
DOCKED: BRANCH  13  14
DOCKED: ATOM     14  C   UNL     1      24.855 -17.371  -1.292 -0.69 -0.00    +0.000 C 
DOCKED: BRANCH  14  15
DOCKED: ATOM     15  C   UNL     1      23.333 -17.210  -1.452 -0.47 -0.00    +0.000 C 
DOCKED: BRANCH  15  16
DOCKED: ATOM     16  C   UNL     1      22.550 -18.077  -0.457 -0.83 -0.00    +0.000 C 
DOCKED: BRANCH  16  17
DOCKED: ATOM     17  C   UNL     1      21.223 -18.501  -1.015 -0.77 -0.00    +0.000 C 
DOCKED: ATOM     18  N   UNL     1      21.126 -19.646  -1.865 -0.58 -0.00    +0.000 N 
DOCKED: ATOM     19  O   UNL     1      20.183 -17.859  -0.706 -2.13 +0.00    +0.000 OA
DOCKED: ATOM     20  H   UNL     1      21.942 -20.139  -2.114 -0.54 -0.00    +0.000 HD
DOCKED: BRANCH  18  21
DOCKED: ATOM     21  O   UNL     1      19.924 -20.060  -2.331 -1.76 -0.00    +0.000 OA
DOCKED: ATOM     22  H   UNL     1      19.260 -19.373  -2.165 -0.45 -0.00    +0.000 HD
DOCKED: ENDBRANCH  18  21
DOCKED: ENDBRANCH  16  17
DOCKED: ENDBRANCH  15  16
DOCKED: ENDBRANCH  14  15
DOCKED: ENDBRANCH  13  14
DOCKED: ENDBRANCH  12  13
DOCKED: ENDBRANCH   1  12
DOCKED: TORSDOF 9
DOCKED: TER
DOCKED: ENDMDL
________________________________________________________________________________


	BEGINNING GENETIC ALGORITHM DOCKING 22 of 100
Run: 22 Seed: 2026997821 2088510114 [ Run 22 of 100 GA/GALS ]
Beginning LAMARCKIAN GENETIC ALGORITHM (LGA), with a maximum of 2500000 energy evaluations.

Final-Value: -13.846


	FINAL GENETIC ALGORITHM DOCKED STATE
	_______________________________________________


Detailed state:  trans 27.484 -15.555 -1.802 quatxyzw 0.762598 -0.568983 0.299644 -0.070123 center 0.056 -0.347 0.144 ntor 9 17.0914 -96.4164 -78.2121 177.1620 39.2602 128.3842 130.8958 -148.2304 -27.3101
State:	 27.484 -15.555  -1.802   0.764 -0.570  0.300 -171.958     17.09  -96.42  -78.21  177.16   39.26  128.38  130.90 -148.23  -27.31

DOCKED: MODEL       22
DOCKED: USER    Run = 22
DOCKED: USER    DPF = ligand_dock.biased.dpf
DOCKED: USER  
DOCKED: USER    Estimated Free Energy of Binding    =   -9.96 kcal/mol  [=(1)+(2)+(3)-(4)]
DOCKED: USER    Estimated Inhibition Constant, Ki   =   50.21 nM (nanomolar)  [Temperature = 298.15 K]
DOCKED: USER    
DOCKED: USER    (1) Final Intermolecular Energy     =  -12.64 kcal/mol
DOCKED: USER        vdW + Hbond + desolv Energy     =  -12.64 kcal/mol
DOCKED: USER        Electrostatic Energy            =   +0.00 kcal/mol
DOCKED: USER    (2) Final Total Internal Energy     =   -1.20 kcal/mol
DOCKED: USER    (3) Torsional Free Energy           =   +2.68 kcal/mol
DOCKED: USER    (4) Unbound System's Energy  [=(2)] =   -1.20 kcal/mol
DOCKED: USER    
DOCKED: USER    
DOCKED: USER    NEWDPF move ligand.pdbqt
DOCKED: USER    NEWDPF about 0.056000 -0.347000 0.144000
DOCKED: USER    NEWDPF tran0 27.484176 -15.555145 -1.801878
DOCKED: USER    NEWDPF quaternion0 0.762598 -0.568983 0.299644 -0.070123
DOCKED: USER    NEWDPF axisangle0 0.764480 -0.570387 0.300383 -171.957933
DOCKED: USER    NEWDPF quat0 0.764480 -0.570387 0.300383 -171.957933
DOCKED: USER    NEWDPF dihe0 17.09 -96.42 -78.21 177.16 39.26 128.38 130.90 -148.23 -27.31 
DOCKED: USER  keepresnum = 1 
DOCKED: USER  
DOCKED: REMARK  Name = 
DOCKED: REMARK  9 active torsions:
DOCKED: REMARK  status: ('A' for Active; 'I' for Inactive)
DOCKED: REMARK    1  A    between atoms: C_2  and  C_10
DOCKED: REMARK    2  A    between atoms: N_3  and  C_4
DOCKED: REMARK    3  A    between atoms: C_10  and  C_11
DOCKED: REMARK    4  A    between atoms: C_11  and  C_12
DOCKED: REMARK    5  A    between atoms: C_12  and  C_13
DOCKED: REMARK    6  A    between atoms: C_13  and  C_14
DOCKED: REMARK    7  A    between atoms: C_14  and  C_15
DOCKED: REMARK    8  A    between atoms: C_15  and  C_16
DOCKED: REMARK    9  A    between atoms: N_17  and  O_18
DOCKED: REMARK                            x       y       z     vdW  Elec       q    Type
DOCKED: REMARK                         _______ _______ _______ _____ _____    ______ ____
DOCKED: USER                              x       y       z     vdW  Elec       q    Type
DOCKED: USER                           _______ _______ _______ _____ _____    ______ ____
DOCKED: ROOT
DOCKED: ATOM      1  C   UNL     1      25.434 -16.312  -3.255 -0.34 -0.00    +0.000 C 
DOCKED: ENDROOT
DOCKED: BRANCH   1   3
DOCKED: ATOM      2  O   UNL     1      25.218 -14.262  -4.454 -0.93 -0.00    +0.000 OA
DOCKED: ATOM      3  C   UNL     1      25.985 -15.193  -4.087 -0.60 -0.00    +0.000 C 
DOCKED: ATOM      4  N   UNL     1      27.371 -15.190  -4.461 -0.40 -0.00    +0.000 N 
DOCKED: ATOM      5  H   UNL     1      27.966 -15.849  -4.034 -0.01 -0.00    +0.000 HD
DOCKED: BRANCH   4   6
DOCKED: ATOM      6  C   UNL     1      27.943 -14.288  -5.422 -0.32 -0.00    +0.000 A 
DOCKED: ATOM      7  C   UNL     1      28.802 -14.747  -6.439 -0.34 -0.00    +0.000 A 
DOCKED: ATOM      8  C   UNL     1      29.360 -13.843  -7.349 -0.27 -0.00    +0.000 A 
DOCKED: ATOM      9  C   UNL     1      29.081 -12.478  -7.244 -0.19 -0.00    +0.000 A 
DOCKED: ATOM     10  C   UNL     1      28.250 -12.012  -6.222 -0.15 -0.00    +0.000 A 
DOCKED: ATOM     11  C   UNL     1      27.690 -12.911  -5.311 -0.21 -0.00    +0.000 A 
DOCKED: ENDBRANCH   4   6
DOCKED: ENDBRANCH   1   3
DOCKED: BRANCH   1  12
DOCKED: ATOM     12  C   UNL     1      26.361 -16.602  -2.070 -0.47 -0.00    +0.000 C 
DOCKED: BRANCH  12  13
DOCKED: ATOM     13  C   UNL     1      25.575 -17.189  -0.889 -0.63 -0.00    +0.000 C 
DOCKED: BRANCH  13  14
DOCKED: ATOM     14  C   UNL     1      24.293 -17.909  -1.332 -0.74 -0.00    +0.000 C 
DOCKED: BRANCH  14  15
DOCKED: ATOM     15  C   UNL     1      23.281 -18.078  -0.184 -0.77 -0.00    +0.000 C 
DOCKED: BRANCH  15  16
DOCKED: ATOM     16  C   UNL     1      22.445 -19.355  -0.332 -0.65 -0.00    +0.000 C 
DOCKED: BRANCH  16  17
DOCKED: ATOM     17  C   UNL     1      20.995 -19.046  -0.570 -0.88 -0.00    +0.000 C 
DOCKED: ATOM     18  N   UNL     1      20.027 -20.098  -0.608 -0.76 -0.00    +0.000 N 
DOCKED: ATOM     19  O   UNL     1      20.628 -17.849  -0.706 -2.34 -0.00    +0.000 OA
DOCKED: ATOM     20  H   UNL     1      20.319 -21.033  -0.513 -0.22 -0.00    +0.000 HD
DOCKED: BRANCH  18  21
DOCKED: ATOM     21  O   UNL     1      18.713 -19.819  -0.775 -0.83 -0.00    +0.000 OA
DOCKED: ATOM     22  H   UNL     1      18.615 -18.917  -1.117 -0.61 -0.00    +0.000 HD
DOCKED: ENDBRANCH  18  21
DOCKED: ENDBRANCH  16  17
DOCKED: ENDBRANCH  15  16
DOCKED: ENDBRANCH  14  15
DOCKED: ENDBRANCH  13  14
DOCKED: ENDBRANCH  12  13
DOCKED: ENDBRANCH   1  12
DOCKED: TORSDOF 9
DOCKED: TER
DOCKED: ENDMDL
________________________________________________________________________________


	BEGINNING GENETIC ALGORITHM DOCKING 23 of 100
Run: 23 Seed: 906118403 1760502566 [ Run 23 of 100 GA/GALS ]
Beginning LAMARCKIAN GENETIC ALGORITHM (LGA), with a maximum of 2500000 energy evaluations.

Final-Value: -15.287


	FINAL GENETIC ALGORITHM DOCKED STATE
	_______________________________________________


Detailed state:  trans 24.768 -15.437 0.687 quatxyzw -0.028999 0.471701 -0.595139 -0.649974 center 0.056 -0.347 0.144 ntor 9 -4.8463 -172.1547 -165.9374 172.5825 56.2899 -69.8992 -162.5810 8.2446 43.7629
State:	 24.768 -15.437   0.687  -0.038  0.621 -0.783 -98.921     -4.85 -172.15 -165.94  172.58   56.29  -69.90 -162.58    8.24   43.76

DOCKED: MODEL       23
DOCKED: USER    Run = 23
DOCKED: USER    DPF = ligand_dock.biased.dpf
DOCKED: USER  
DOCKED: USER    Estimated Free Energy of Binding    =  -11.39 kcal/mol  [=(1)+(2)+(3)-(4)]
DOCKED: USER    Estimated Inhibition Constant, Ki   =    4.47 nM (nanomolar)  [Temperature = 298.15 K]
DOCKED: USER    
DOCKED: USER    (1) Final Intermolecular Energy     =  -14.08 kcal/mol
DOCKED: USER        vdW + Hbond + desolv Energy     =  -14.08 kcal/mol
DOCKED: USER        Electrostatic Energy            =   +0.00 kcal/mol
DOCKED: USER    (2) Final Total Internal Energy     =   -1.21 kcal/mol
DOCKED: USER    (3) Torsional Free Energy           =   +2.68 kcal/mol
DOCKED: USER    (4) Unbound System's Energy  [=(2)] =   -1.21 kcal/mol
DOCKED: USER    
DOCKED: USER    
DOCKED: USER    NEWDPF move ligand.pdbqt
DOCKED: USER    NEWDPF about 0.056000 -0.347000 0.144000
DOCKED: USER    NEWDPF tran0 24.767932 -15.436557 0.687250
DOCKED: USER    NEWDPF quaternion0 -0.028999 0.471701 -0.595139 -0.649974
DOCKED: USER    NEWDPF axisangle0 -0.038159 0.620694 -0.783123 -98.920668
DOCKED: USER    NEWDPF quat0 -0.038159 0.620694 -0.783123 -98.920668
DOCKED: USER    NEWDPF dihe0 -4.85 -172.15 -165.94 172.58 56.29 -69.90 -162.58 8.24 43.76 
DOCKED: USER  keepresnum = 1 
DOCKED: USER  
DOCKED: REMARK  Name = 
DOCKED: REMARK  9 active torsions:
DOCKED: REMARK  status: ('A' for Active; 'I' for Inactive)
DOCKED: REMARK    1  A    between atoms: C_2  and  C_10
DOCKED: REMARK    2  A    between atoms: N_3  and  C_4
DOCKED: REMARK    3  A    between atoms: C_10  and  C_11
DOCKED: REMARK    4  A    between atoms: C_11  and  C_12
DOCKED: REMARK    5  A    between atoms: C_12  and  C_13
DOCKED: REMARK    6  A    between atoms: C_13  and  C_14
DOCKED: REMARK    7  A    between atoms: C_14  and  C_15
DOCKED: REMARK    8  A    between atoms: C_15  and  C_16
DOCKED: REMARK    9  A    between atoms: N_17  and  O_18
DOCKED: REMARK                            x       y       z     vdW  Elec       q    Type
DOCKED: REMARK                         _______ _______ _______ _____ _____    ______ ____
DOCKED: USER                              x       y       z     vdW  Elec       q    Type
DOCKED: USER                           _______ _______ _______ _____ _____    ______ ____
DOCKED: ROOT
DOCKED: ATOM      1  C   UNL     1      27.167 -14.703  -0.083 -0.31 -0.00    +0.000 C 
DOCKED: ENDROOT
DOCKED: BRANCH   1   3
DOCKED: ATOM      2  O   UNL     1      26.202 -13.223   1.518 -0.41 -0.00    +0.000 OA
DOCKED: ATOM      3  C   UNL     1      27.094 -14.081   1.279 -0.25 -0.00    +0.000 C 
DOCKED: ATOM      4  N   UNL     1      28.037 -14.460   2.294 -0.31 -0.00    +0.000 N 
DOCKED: ATOM      5  H   UNL     1      28.619 -15.235   2.118 -1.57 -0.00    +0.000 HD
DOCKED: BRANCH   4   6
DOCKED: ATOM      6  C   UNL     1      28.185 -13.777   3.549 -0.36 -0.00    +0.000 A 
DOCKED: ATOM      7  C   UNL     1      28.621 -14.453   4.705 -0.48 -0.00    +0.000 A 
DOCKED: ATOM      8  C   UNL     1      28.738 -13.769   5.919 -0.35 -0.00    +0.000 A 
DOCKED: ATOM      9  C   UNL     1      28.407 -12.413   5.995 -0.38 -0.00    +0.000 A 
DOCKED: ATOM     10  C   UNL     1      27.949 -11.741   4.859 -0.33 +0.00    +0.000 A 
DOCKED: ATOM     11  C   UNL     1      27.831 -12.422   3.643 -0.29 -0.00    +0.000 A 
DOCKED: ENDBRANCH   4   6
DOCKED: ENDBRANCH   1   3
DOCKED: BRANCH   1  12
DOCKED: ATOM     12  C   UNL     1      25.934 -15.577  -0.336 -0.25 -0.00    +0.000 C 
DOCKED: BRANCH  12  13
DOCKED: ATOM     13  C   UNL     1      26.332 -16.908  -0.992 -0.54 -0.00    +0.000 C 
DOCKED: BRANCH  13  14
DOCKED: ATOM     14  C   UNL     1      25.118 -17.794  -1.312 -0.66 -0.00    +0.000 C 
DOCKED: BRANCH  14  15
DOCKED: ATOM     15  C   UNL     1      23.783 -17.133  -0.925 -0.70 -0.00    +0.000 C 
DOCKED: BRANCH  15  16
DOCKED: ATOM     16  C   UNL     1      22.881 -18.077  -0.120 -0.77 -0.00    +0.000 C 
DOCKED: BRANCH  16  17
DOCKED: ATOM     17  C   UNL     1      21.583 -18.342  -0.826 -0.81 -0.00    +0.000 C 
DOCKED: ATOM     18  N   UNL     1      21.407 -19.532  -1.597 -0.63 -0.00    +0.000 N 
DOCKED: ATOM     19  O   UNL     1      20.634 -17.521  -0.712 -2.11 +0.00    +0.000 OA
DOCKED: ATOM     20  H   UNL     1      22.155 -20.166  -1.693 -0.42 -0.00    +0.000 HD
DOCKED: BRANCH  18  21
DOCKED: ATOM     21  O   UNL     1      20.222 -19.797  -2.196 -1.87 -0.00    +0.000 OA
DOCKED: ATOM     22  H   UNL     1      19.574 -19.121  -1.944 -0.28 -0.00    +0.000 HD
DOCKED: ENDBRANCH  18  21
DOCKED: ENDBRANCH  16  17
DOCKED: ENDBRANCH  15  16
DOCKED: ENDBRANCH  14  15
DOCKED: ENDBRANCH  13  14
DOCKED: ENDBRANCH  12  13
DOCKED: ENDBRANCH   1  12
DOCKED: TORSDOF 9
DOCKED: TER
DOCKED: ENDMDL
________________________________________________________________________________


	BEGINNING GENETIC ALGORITHM DOCKING 24 of 100
Run: 24 Seed: 123047814 993152086 [ Run 24 of 100 GA/GALS ]
Beginning LAMARCKIAN GENETIC ALGORITHM (LGA), with a maximum of 2500000 energy evaluations.

Final-Value: -13.024


	FINAL GENETIC ALGORITHM DOCKED STATE
	_______________________________________________


Detailed state:  trans 27.492 -17.775 -1.092 quatxyzw -0.299104 0.862878 0.202455 0.353540 center 0.056 -0.347 0.144 ntor 9 -3.3264 -180.0000 -171.1672 36.8861 -35.6780 -176.2489 80.1220 118.6361 116.6630
State:	 27.492 -17.775  -1.092  -0.320  0.922  0.216 138.592     -3.33 -180.00 -171.17   36.89  -35.68 -176.25   80.12  118.64  116.66

DOCKED: MODEL       24
DOCKED: USER    Run = 24
DOCKED: USER    DPF = ligand_dock.biased.dpf
DOCKED: USER  
DOCKED: USER    Estimated Free Energy of Binding    =   -9.02 kcal/mol  [=(1)+(2)+(3)-(4)]
DOCKED: USER    Estimated Inhibition Constant, Ki   =  244.90 nM (nanomolar)  [Temperature = 298.15 K]
DOCKED: USER    
DOCKED: USER    (1) Final Intermolecular Energy     =  -11.70 kcal/mol
DOCKED: USER        vdW + Hbond + desolv Energy     =  -11.70 kcal/mol
DOCKED: USER        Electrostatic Energy            =   +0.00 kcal/mol
DOCKED: USER    (2) Final Total Internal Energy     =   -1.32 kcal/mol
DOCKED: USER    (3) Torsional Free Energy           =   +2.68 kcal/mol
DOCKED: USER    (4) Unbound System's Energy  [=(2)] =   -1.32 kcal/mol
DOCKED: USER    
DOCKED: USER    
DOCKED: USER    NEWDPF move ligand.pdbqt
DOCKED: USER    NEWDPF about 0.056000 -0.347000 0.144000
DOCKED: USER    NEWDPF tran0 27.492340 -17.775067 -1.092318
DOCKED: USER    NEWDPF quaternion0 -0.299104 0.862878 0.202455 0.353540
DOCKED: USER    NEWDPF axisangle0 -0.319754 0.922450 0.216432 138.592060
DOCKED: USER    NEWDPF quat0 -0.319754 0.922450 0.216432 138.592060
DOCKED: USER    NEWDPF dihe0 -3.33 -180.00 -171.17 36.89 -35.68 -176.25 80.12 118.64 116.66 
DOCKED: USER  keepresnum = 1 
DOCKED: USER  
DOCKED: REMARK  Name = 
DOCKED: REMARK  9 active torsions:
DOCKED: REMARK  status: ('A' for Active; 'I' for Inactive)
DOCKED: REMARK    1  A    between atoms: C_2  and  C_10
DOCKED: REMARK    2  A    between atoms: N_3  and  C_4
DOCKED: REMARK    3  A    between atoms: C_10  and  C_11
DOCKED: REMARK    4  A    between atoms: C_11  and  C_12
DOCKED: REMARK    5  A    between atoms: C_12  and  C_13
DOCKED: REMARK    6  A    between atoms: C_13  and  C_14
DOCKED: REMARK    7  A    between atoms: C_14  and  C_15
DOCKED: REMARK    8  A    between atoms: C_15  and  C_16
DOCKED: REMARK    9  A    between atoms: N_17  and  O_18
DOCKED: REMARK                            x       y       z     vdW  Elec       q    Type
DOCKED: REMARK                         _______ _______ _______ _____ _____    ______ ____
DOCKED: USER                              x       y       z     vdW  Elec       q    Type
DOCKED: USER                           _______ _______ _______ _____ _____    ______ ____
DOCKED: ROOT
DOCKED: ATOM      1  C   UNL     1      26.321 -15.514  -0.456 -0.37 -0.00    +0.000 C 
DOCKED: ENDROOT
DOCKED: BRANCH   1   3
DOCKED: ATOM      2  O   UNL     1      26.951 -13.943  -2.135 -0.25 -0.00    +0.000 OA
DOCKED: ATOM      3  C   UNL     1      27.028 -15.131  -1.721 -0.32 -0.00    +0.000 C 
DOCKED: ATOM      4  N   UNL     1      27.780 -16.114  -2.451 -0.29 -0.00    +0.000 N 
DOCKED: ATOM      5  H   UNL     1      27.940 -16.985  -2.021 -0.02 -0.00    +0.000 HD
DOCKED: BRANCH   4   6
DOCKED: ATOM      6  C   UNL     1      28.311 -15.903  -3.769 -0.23 -0.00    +0.000 A 
DOCKED: ATOM      7  C   UNL     1      29.560 -16.430  -4.149 -0.23 -0.00    +0.000 A 
DOCKED: ATOM      8  C   UNL     1      30.062 -16.193  -5.432 -0.26 -0.00    +0.000 A 
DOCKED: ATOM      9  C   UNL     1      29.334 -15.420  -6.340 -0.33 -0.00    +0.000 A 
DOCKED: ATOM     10  C   UNL     1      28.105 -14.873  -5.962 -0.37 -0.00    +0.000 A 
DOCKED: ATOM     11  C   UNL     1      27.599 -15.107  -4.680 -0.38 -0.00    +0.000 A 
DOCKED: ENDBRANCH   4   6
DOCKED: ENDBRANCH   1   3
DOCKED: BRANCH   1  12
DOCKED: ATOM     12  C   UNL     1      26.461 -17.019  -0.201 -0.50 -0.00    +0.000 C 
DOCKED: BRANCH  12  13
DOCKED: ATOM     13  C   UNL     1      25.776 -17.829  -1.312 -0.52 -0.00    +0.000 C 
DOCKED: BRANCH  13  14
DOCKED: ATOM     14  C   UNL     1      24.249 -17.667  -1.304 -0.74 -0.00    +0.000 C 
DOCKED: BRANCH  14  15
DOCKED: ATOM     15  C   UNL     1      23.525 -18.906  -0.747 -0.80 -0.00    +0.000 C 
DOCKED: BRANCH  15  16
DOCKED: ATOM     16  C   UNL     1      22.386 -18.531   0.211 -0.69 -0.00    +0.000 C 
DOCKED: BRANCH  16  17
DOCKED: ATOM     17  C   UNL     1      21.040 -18.716  -0.426 -0.78 -0.00    +0.000 C 
DOCKED: ATOM     18  N   UNL     1      20.326 -19.944  -0.268 -0.75 -0.00    +0.000 N 
DOCKED: ATOM     19  O   UNL     1      20.525 -17.770  -1.080 -2.18 -0.00    +0.000 OA
DOCKED: ATOM     20  H   UNL     1      20.736 -20.686   0.234 -0.19 -0.00    +0.000 HD
DOCKED: BRANCH  18  21
DOCKED: ATOM     21  O   UNL     1      19.091 -20.098  -0.801 -0.98 -0.00    +0.000 OA
DOCKED: ATOM     22  H   UNL     1      18.812 -19.266  -1.215 -0.53 -0.00    +0.000 HD
DOCKED: ENDBRANCH  18  21
DOCKED: ENDBRANCH  16  17
DOCKED: ENDBRANCH  15  16
DOCKED: ENDBRANCH  14  15
DOCKED: ENDBRANCH  13  14
DOCKED: ENDBRANCH  12  13
DOCKED: ENDBRANCH   1  12
DOCKED: TORSDOF 9
DOCKED: TER
DOCKED: ENDMDL
________________________________________________________________________________


	BEGINNING GENETIC ALGORITHM DOCKING 25 of 100
Run: 25 Seed: 467587906 1058975540 [ Run 25 of 100 GA/GALS ]
Beginning LAMARCKIAN GENETIC ALGORITHM (LGA), with a maximum of 2500000 energy evaluations.

Final-Value: -13.405


	FINAL GENETIC ALGORITHM DOCKED STATE
	_______________________________________________


Detailed state:  trans 26.627 -16.954 0.553 quatxyzw -0.490660 0.742746 -0.096100 -0.445360 center 0.056 -0.347 0.144 ntor 9 -35.9294 -26.8819 -179.9719 -40.2649 -6.0593 -127.1438 -29.7911 93.5620 11.2838
State:	 26.627 -16.954   0.553  -0.548  0.830 -0.107 -127.107    -35.93  -26.88 -179.97  -40.26   -6.06 -127.14  -29.79   93.56   11.28

DOCKED: MODEL       25
DOCKED: USER    Run = 25
DOCKED: USER    DPF = ligand_dock.biased.dpf
DOCKED: USER  
DOCKED: USER    Estimated Free Energy of Binding    =   -9.52 kcal/mol  [=(1)+(2)+(3)-(4)]
DOCKED: USER    Estimated Inhibition Constant, Ki   =  105.57 nM (nanomolar)  [Temperature = 298.15 K]
DOCKED: USER    
DOCKED: USER    (1) Final Intermolecular Energy     =  -12.20 kcal/mol
DOCKED: USER        vdW + Hbond + desolv Energy     =  -12.20 kcal/mol
DOCKED: USER        Electrostatic Energy            =   +0.00 kcal/mol
DOCKED: USER    (2) Final Total Internal Energy     =   -1.20 kcal/mol
DOCKED: USER    (3) Torsional Free Energy           =   +2.68 kcal/mol
DOCKED: USER    (4) Unbound System's Energy  [=(2)] =   -1.20 kcal/mol
DOCKED: USER    
DOCKED: USER    
DOCKED: USER    NEWDPF move ligand.pdbqt
DOCKED: USER    NEWDPF about 0.056000 -0.347000 0.144000
DOCKED: USER    NEWDPF tran0 26.627346 -16.954459 0.553249
DOCKED: USER    NEWDPF quaternion0 -0.490660 0.742746 -0.096100 -0.445360
DOCKED: USER    NEWDPF axisangle0 -0.548008 0.829558 -0.107332 -127.107192
DOCKED: USER    NEWDPF quat0 -0.548008 0.829558 -0.107332 -127.107192
DOCKED: USER    NEWDPF dihe0 -35.93 -26.88 -179.97 -40.26 -6.06 -127.14 -29.79 93.56 11.28 
DOCKED: USER  keepresnum = 1 
DOCKED: USER  
DOCKED: REMARK  Name = 
DOCKED: REMARK  9 active torsions:
DOCKED: REMARK  status: ('A' for Active; 'I' for Inactive)
DOCKED: REMARK    1  A    between atoms: C_2  and  C_10
DOCKED: REMARK    2  A    between atoms: N_3  and  C_4
DOCKED: REMARK    3  A    between atoms: C_10  and  C_11
DOCKED: REMARK    4  A    between atoms: C_11  and  C_12
DOCKED: REMARK    5  A    between atoms: C_12  and  C_13
DOCKED: REMARK    6  A    between atoms: C_13  and  C_14
DOCKED: REMARK    7  A    between atoms: C_14  and  C_15
DOCKED: REMARK    8  A    between atoms: C_15  and  C_16
DOCKED: REMARK    9  A    between atoms: N_17  and  O_18
DOCKED: REMARK                            x       y       z     vdW  Elec       q    Type
DOCKED: REMARK                         _______ _______ _______ _____ _____    ______ ____
DOCKED: USER                              x       y       z     vdW  Elec       q    Type
DOCKED: USER                           _______ _______ _______ _____ _____    ______ ____
DOCKED: ROOT
DOCKED: ATOM      1  C   UNL     1      25.665 -15.088  -1.021 -0.35 -0.00    +0.000 C 
DOCKED: ENDROOT
DOCKED: BRANCH   1   3
DOCKED: ATOM      2  O   UNL     1      27.804 -14.378  -0.241 -0.22 -0.00    +0.000 OA
DOCKED: ATOM      3  C   UNL     1      26.553 -14.282  -0.121 -0.32 -0.00    +0.000 C 
DOCKED: ATOM      4  N   UNL     1      25.976 -13.416   0.870 -0.31 -0.00    +0.000 N 
DOCKED: ATOM      5  H   UNL     1      25.005 -13.255   0.834 -0.04 -0.00    +0.000 HD
DOCKED: BRANCH   4   6
DOCKED: ATOM      6  C   UNL     1      26.729 -12.772   1.910 -0.31 -0.00    +0.000 A 
DOCKED: ATOM      7  C   UNL     1      27.393 -13.516   2.904 -0.34 -0.00    +0.000 A 
DOCKED: ATOM      8  C   UNL     1      28.102 -12.862   3.917 -0.32 -0.00    +0.000 A 
DOCKED: ATOM      9  C   UNL     1      28.143 -11.467   3.957 -0.25 +0.00    +0.000 A 
DOCKED: ATOM     10  C   UNL     1      27.466 -10.720   2.989 -0.24 +0.00    +0.000 A 
DOCKED: ATOM     11  C   UNL     1      26.756 -11.369   1.975 -0.30 +0.00    +0.000 A 
DOCKED: ENDBRANCH   4   6
DOCKED: ENDBRANCH   1   3
DOCKED: BRANCH   1  12
DOCKED: ATOM     12  C   UNL     1      25.834 -16.584  -0.736 -0.53 -0.00    +0.000 C 
DOCKED: BRANCH  12  13
DOCKED: ATOM     13  C   UNL     1      25.148 -17.430  -1.819 -0.63 -0.00    +0.000 C 
DOCKED: BRANCH  13  14
DOCKED: ATOM     14  C   UNL     1      23.702 -17.798  -1.453 -0.74 -0.00    +0.000 C 
DOCKED: BRANCH  14  15
DOCKED: ATOM     15  C   UNL     1      23.601 -18.532  -0.104 -0.71 -0.00    +0.000 C 
DOCKED: BRANCH  15  16
DOCKED: ATOM     16  C   UNL     1      22.158 -18.597   0.413 -0.63 -0.00    +0.000 C 
DOCKED: BRANCH  16  17
DOCKED: ATOM     17  C   UNL     1      21.163 -18.579  -0.711 -0.85 -0.00    +0.000 C 
DOCKED: ATOM     18  N   UNL     1      20.812 -19.788  -1.388 -0.75 -0.00    +0.000 N 
DOCKED: ATOM     19  O   UNL     1      20.613 -17.493  -1.038 -2.10 -0.00    +0.000 OA
DOCKED: ATOM     20  H   UNL     1      21.253 -20.633  -1.137 -0.09 -0.00    +0.000 HD
DOCKED: BRANCH  18  21
DOCKED: ATOM     21  O   UNL     1      19.880 -19.783  -2.370 -1.76 -0.00    +0.000 OA
DOCKED: ATOM     22  H   UNL     1      19.184 -19.145  -2.151 -0.42 -0.00    +0.000 HD
DOCKED: ENDBRANCH  18  21
DOCKED: ENDBRANCH  16  17
DOCKED: ENDBRANCH  15  16
DOCKED: ENDBRANCH  14  15
DOCKED: ENDBRANCH  13  14
DOCKED: ENDBRANCH  12  13
DOCKED: ENDBRANCH   1  12
DOCKED: TORSDOF 9
DOCKED: TER
DOCKED: ENDMDL
________________________________________________________________________________


	BEGINNING GENETIC ALGORITHM DOCKING 26 of 100
Run: 26 Seed: 122365723 1630503233 [ Run 26 of 100 GA/GALS ]
Beginning LAMARCKIAN GENETIC ALGORITHM (LGA), with a maximum of 2500000 energy evaluations.

Final-Value: -13.066


	FINAL GENETIC ALGORITHM DOCKED STATE
	_______________________________________________


Detailed state:  trans 26.239 -15.399 -3.238 quatxyzw -0.319775 0.301510 0.848373 0.295124 center 0.056 -0.347 0.144 ntor 9 -2.3314 -96.8826 155.1760 30.8522 61.8729 172.8151 -175.1964 -179.5288 75.6261
State:	 26.239 -15.399  -3.238  -0.335  0.316  0.888 145.670     -2.33  -96.88  155.18   30.85   61.87  172.82 -175.20 -179.53   75.63

DOCKED: MODEL       26
DOCKED: USER    Run = 26
DOCKED: USER    DPF = ligand_dock.biased.dpf
DOCKED: USER  
DOCKED: USER    Estimated Free Energy of Binding    =   -8.91 kcal/mol  [=(1)+(2)+(3)-(4)]
DOCKED: USER    Estimated Inhibition Constant, Ki   =  295.68 nM (nanomolar)  [Temperature = 298.15 K]
DOCKED: USER    
DOCKED: USER    (1) Final Intermolecular Energy     =  -11.59 kcal/mol
DOCKED: USER        vdW + Hbond + desolv Energy     =  -11.59 kcal/mol
DOCKED: USER        Electrostatic Energy            =   +0.00 kcal/mol
DOCKED: USER    (2) Final Total Internal Energy     =   -1.47 kcal/mol
DOCKED: USER    (3) Torsional Free Energy           =   +2.68 kcal/mol
DOCKED: USER    (4) Unbound System's Energy  [=(2)] =   -1.47 kcal/mol
DOCKED: USER    
DOCKED: USER    
DOCKED: USER    NEWDPF move ligand.pdbqt
DOCKED: USER    NEWDPF about 0.056000 -0.347000 0.144000
DOCKED: USER    NEWDPF tran0 26.239259 -15.398923 -3.238027
DOCKED: USER    NEWDPF quaternion0 -0.319775 0.301510 0.848373 0.295124
DOCKED: USER    NEWDPF axisangle0 -0.334683 0.315566 0.887922 145.670082
DOCKED: USER    NEWDPF quat0 -0.334683 0.315566 0.887922 145.670082
DOCKED: USER    NEWDPF dihe0 -2.33 -96.88 155.18 30.85 61.87 172.82 -175.20 -179.53 75.63 
DOCKED: USER  keepresnum = 1 
DOCKED: USER  
DOCKED: REMARK  Name = 
DOCKED: REMARK  9 active torsions:
DOCKED: REMARK  status: ('A' for Active; 'I' for Inactive)
DOCKED: REMARK    1  A    between atoms: C_2  and  C_10
DOCKED: REMARK    2  A    between atoms: N_3  and  C_4
DOCKED: REMARK    3  A    between atoms: C_10  and  C_11
DOCKED: REMARK    4  A    between atoms: C_11  and  C_12
DOCKED: REMARK    5  A    between atoms: C_12  and  C_13
DOCKED: REMARK    6  A    between atoms: C_13  and  C_14
DOCKED: REMARK    7  A    between atoms: C_14  and  C_15
DOCKED: REMARK    8  A    between atoms: C_15  and  C_16
DOCKED: REMARK    9  A    between atoms: N_17  and  O_18
DOCKED: REMARK                            x       y       z     vdW  Elec       q    Type
DOCKED: REMARK                         _______ _______ _______ _____ _____    ______ ____
DOCKED: USER                              x       y       z     vdW  Elec       q    Type
DOCKED: USER                           _______ _______ _______ _____ _____    ______ ____
DOCKED: ROOT
DOCKED: ATOM      1  C   UNL     1      26.780 -16.393  -0.870 -0.46 -0.00    +0.000 C 
DOCKED: ENDROOT
DOCKED: BRANCH   1   3
DOCKED: ATOM      2  O   UNL     1      28.130 -14.449  -1.160 -0.16 -0.00    +0.000 OA
DOCKED: ATOM      3  C   UNL     1      27.085 -14.941  -0.654 -0.31 -0.00    +0.000 C 
DOCKED: ATOM      4  N   UNL     1      26.195 -14.127   0.125 -0.31 -0.00    +0.000 N 
DOCKED: ATOM      5  H   UNL     1      25.320 -14.506   0.375 -0.01 -0.00    +0.000 HD
DOCKED: BRANCH   4   6
DOCKED: ATOM      6  C   UNL     1      26.501 -12.793   0.563 -0.27 -0.00    +0.000 A 
DOCKED: ATOM      7  C   UNL     1      26.262 -12.384   1.889 -0.28 +0.00    +0.000 A 
DOCKED: ATOM      8  C   UNL     1      26.551 -11.074   2.284 -0.31 +0.00    +0.000 A 
DOCKED: ATOM      9  C   UNL     1      27.064 -10.159   1.361 -0.22 +0.00    +0.000 A 
DOCKED: ATOM     10  C   UNL     1      27.281 -10.550   0.037 -0.14 +0.00    +0.000 A 
DOCKED: ATOM     11  C   UNL     1      26.993 -11.858  -0.362 -0.13 -0.00    +0.000 A 
DOCKED: ENDBRANCH   4   6
DOCKED: ENDBRANCH   1   3
DOCKED: BRANCH   1  12
DOCKED: ATOM     12  C   UNL     1      26.167 -16.608  -2.258 -0.46 -0.00    +0.000 C 
DOCKED: BRANCH  12  13
DOCKED: ATOM     13  C   UNL     1      24.655 -16.854  -2.158 -0.50 -0.00    +0.000 C 
DOCKED: BRANCH  13  14
DOCKED: ATOM     14  C   UNL     1      24.168 -16.958  -0.705 -0.63 -0.00    +0.000 C 
DOCKED: BRANCH  14  15
DOCKED: ATOM     15  C   UNL     1      23.596 -18.347  -0.369 -0.80 -0.00    +0.000 C 
DOCKED: BRANCH  15  16
DOCKED: ATOM     16  C   UNL     1      22.177 -18.265   0.208 -0.72 -0.00    +0.000 C 
DOCKED: BRANCH  16  17
DOCKED: ATOM     17  C   UNL     1      21.135 -18.551  -0.834 -0.82 -0.00    +0.000 C 
DOCKED: ATOM     18  N   UNL     1      21.124 -19.804  -1.522 -0.55 -0.00    +0.000 N 
DOCKED: ATOM     19  O   UNL     1      20.248 -17.691  -1.081 -2.09 -0.00    +0.000 OA
DOCKED: ATOM     20  H   UNL     1      21.825 -20.470  -1.335 -0.24 -0.00    +0.000 HD
DOCKED: BRANCH  18  21
DOCKED: ATOM     21  O   UNL     1      20.158 -20.085  -2.428 -1.73 -0.00    +0.000 OA
DOCKED: ATOM     22  H   UNL     1      19.529 -19.348  -2.469 -0.45 -0.00    +0.000 HD
DOCKED: ENDBRANCH  18  21
DOCKED: ENDBRANCH  16  17
DOCKED: ENDBRANCH  15  16
DOCKED: ENDBRANCH  14  15
DOCKED: ENDBRANCH  13  14
DOCKED: ENDBRANCH  12  13
DOCKED: ENDBRANCH   1  12
DOCKED: TORSDOF 9
DOCKED: TER
DOCKED: ENDMDL
________________________________________________________________________________


	BEGINNING GENETIC ALGORITHM DOCKING 27 of 100
Run: 27 Seed: 88895083 992013419 [ Run 27 of 100 GA/GALS ]
Beginning LAMARCKIAN GENETIC ALGORITHM (LGA), with a maximum of 2500000 energy evaluations.

Final-Value: -14.028


	FINAL GENETIC ALGORITHM DOCKED STATE
	_______________________________________________


Detailed state:  trans 27.986 -16.967 -1.707 quatxyzw -0.281517 0.832534 -0.142042 0.455477 center 0.056 -0.347 0.144 ntor 9 -93.1542 -49.6563 -133.3509 179.8747 108.7730 148.2068 21.0450 -178.7230 66.3326
State:	 27.986 -16.967  -1.707  -0.316  0.935 -0.160 125.809    -93.15  -49.66 -133.35  179.87  108.77  148.21   21.05 -178.72   66.33

DOCKED: MODEL       27
DOCKED: USER    Run = 27
DOCKED: USER    DPF = ligand_dock.biased.dpf
DOCKED: USER  
DOCKED: USER    Estimated Free Energy of Binding    =  -10.43 kcal/mol  [=(1)+(2)+(3)-(4)]
DOCKED: USER    Estimated Inhibition Constant, Ki   =   22.68 nM (nanomolar)  [Temperature = 298.15 K]
DOCKED: USER    
DOCKED: USER    (1) Final Intermolecular Energy     =  -13.11 kcal/mol
DOCKED: USER        vdW + Hbond + desolv Energy     =  -13.11 kcal/mol
DOCKED: USER        Electrostatic Energy            =   +0.00 kcal/mol
DOCKED: USER    (2) Final Total Internal Energy     =   -0.91 kcal/mol
DOCKED: USER    (3) Torsional Free Energy           =   +2.68 kcal/mol
DOCKED: USER    (4) Unbound System's Energy  [=(2)] =   -0.91 kcal/mol
DOCKED: USER    
DOCKED: USER    
DOCKED: USER    NEWDPF move ligand.pdbqt
DOCKED: USER    NEWDPF about 0.056000 -0.347000 0.144000
DOCKED: USER    NEWDPF tran0 27.986300 -16.966859 -1.706759
DOCKED: USER    NEWDPF quaternion0 -0.281517 0.832534 -0.142042 0.455477
DOCKED: USER    NEWDPF axisangle0 -0.316223 0.935171 -0.159553 125.808760
DOCKED: USER    NEWDPF quat0 -0.316223 0.935171 -0.159553 125.808760
DOCKED: USER    NEWDPF dihe0 -93.15 -49.66 -133.35 179.87 108.77 148.21 21.05 -178.72 66.33 
DOCKED: USER  keepresnum = 1 
DOCKED: USER  
DOCKED: REMARK  Name = 
DOCKED: REMARK  9 active torsions:
DOCKED: REMARK  status: ('A' for Active; 'I' for Inactive)
DOCKED: REMARK    1  A    between atoms: C_2  and  C_10
DOCKED: REMARK    2  A    between atoms: N_3  and  C_4
DOCKED: REMARK    3  A    between atoms: C_10  and  C_11
DOCKED: REMARK    4  A    between atoms: C_11  and  C_12
DOCKED: REMARK    5  A    between atoms: C_12  and  C_13
DOCKED: REMARK    6  A    between atoms: C_13  and  C_14
DOCKED: REMARK    7  A    between atoms: C_14  and  C_15
DOCKED: REMARK    8  A    between atoms: C_15  and  C_16
DOCKED: REMARK    9  A    between atoms: N_17  and  O_18
DOCKED: REMARK                            x       y       z     vdW  Elec       q    Type
DOCKED: REMARK                         _______ _______ _______ _____ _____    ______ ____
DOCKED: USER                              x       y       z     vdW  Elec       q    Type
DOCKED: USER                           _______ _______ _______ _____ _____    ______ ____
DOCKED: ROOT
DOCKED: ATOM      1  C   UNL     1      26.225 -15.185  -2.490 -0.44 -0.00    +0.000 C 
DOCKED: ENDROOT
DOCKED: BRANCH   1   3
DOCKED: ATOM      2  O   UNL     1      26.250 -15.907  -4.763 -0.91 -0.00    +0.000 OA
DOCKED: ATOM      3  C   UNL     1      26.923 -15.493  -3.780 -0.43 -0.00    +0.000 C 
DOCKED: ATOM      4  N   UNL     1      28.345 -15.320  -3.888 -0.25 -0.00    +0.000 N 
DOCKED: ATOM      5  H   UNL     1      28.811 -14.856  -3.155 +0.01 -0.00    +0.000 HD
DOCKED: BRANCH   4   6
DOCKED: ATOM      6  C   UNL     1      29.130 -15.783  -4.999 -0.29 -0.00    +0.000 A 
DOCKED: ATOM      7  C   UNL     1      29.640 -17.095  -5.040 -0.24 -0.00    +0.000 A 
DOCKED: ATOM      8  C   UNL     1      30.418 -17.514  -6.125 -0.32 -0.00    +0.000 A 
DOCKED: ATOM      9  C   UNL     1      30.705 -16.628  -7.166 -0.29 -0.00    +0.000 A 
DOCKED: ATOM     10  C   UNL     1      30.223 -15.317  -7.121 -0.27 -0.00    +0.000 A 
DOCKED: ATOM     11  C   UNL     1      29.446 -14.894  -6.039 -0.29 -0.00    +0.000 A 
DOCKED: ENDBRANCH   4   6
DOCKED: ENDBRANCH   1   3
DOCKED: BRANCH   1  12
DOCKED: ATOM     12  C   UNL     1      26.720 -16.119  -1.380 -0.43 -0.00    +0.000 C 
DOCKED: BRANCH  12  13
DOCKED: ATOM     13  C   UNL     1      25.597 -17.054  -0.909 -0.61 -0.00    +0.000 C 
DOCKED: BRANCH  13  14
DOCKED: ATOM     14  C   UNL     1      24.249 -16.741  -1.575 -0.58 -0.00    +0.000 C 
DOCKED: BRANCH  14  15
DOCKED: ATOM     15  C   UNL     1      23.063 -16.870  -0.603 -0.52 -0.00    +0.000 C 
DOCKED: BRANCH  15  16
DOCKED: ATOM     16  C   UNL     1      22.649 -18.331  -0.385 -0.83 -0.00    +0.000 C 
DOCKED: BRANCH  16  17
DOCKED: ATOM     17  C   UNL     1      21.302 -18.622  -0.981 -0.82 -0.00    +0.000 C 
DOCKED: ATOM     18  N   UNL     1      21.113 -19.762  -1.823 -0.54 -0.00    +0.000 N 
DOCKED: ATOM     19  O   UNL     1      20.327 -17.872  -0.711 -2.23 -0.00    +0.000 OA
DOCKED: ATOM     20  H   UNL     1      21.880 -20.340  -2.042 -0.47 -0.00    +0.000 HD
DOCKED: BRANCH  18  21
DOCKED: ATOM     21  O   UNL     1      19.889 -20.054  -2.324 -1.76 -0.00    +0.000 OA
DOCKED: ATOM     22  H   UNL     1      19.439 -20.677  -1.733 -0.60 -0.00    +0.000 HD
DOCKED: ENDBRANCH  18  21
DOCKED: ENDBRANCH  16  17
DOCKED: ENDBRANCH  15  16
DOCKED: ENDBRANCH  14  15
DOCKED: ENDBRANCH  13  14
DOCKED: ENDBRANCH  12  13
DOCKED: ENDBRANCH   1  12
DOCKED: TORSDOF 9
DOCKED: TER
DOCKED: ENDMDL
________________________________________________________________________________


	BEGINNING GENETIC ALGORITHM DOCKING 28 of 100
Run: 28 Seed: 713750249 1822524441 [ Run 28 of 100 GA/GALS ]
Beginning LAMARCKIAN GENETIC ALGORITHM (LGA), with a maximum of 2500000 energy evaluations.

Final-Value: -13.282


	FINAL GENETIC ALGORITHM DOCKED STATE
	_______________________________________________


Detailed state:  trans 27.282 -16.715 0.611 quatxyzw -0.363068 0.773253 0.041916 -0.518174 center 0.056 -0.347 0.144 ntor 9 1.9841 179.6895 -175.8346 23.6795 -39.2289 -166.9538 -11.8926 92.4029 15.5227
State:	 27.282 -16.715   0.611  -0.425  0.904  0.049 -117.580      1.98  179.69 -175.83   23.68  -39.23 -166.95  -11.89   92.40   15.52

DOCKED: MODEL       28
DOCKED: USER    Run = 28
DOCKED: USER    DPF = ligand_dock.biased.dpf
DOCKED: USER  
DOCKED: USER    Estimated Free Energy of Binding    =   -9.35 kcal/mol  [=(1)+(2)+(3)-(4)]
DOCKED: USER    Estimated Inhibition Constant, Ki   =  139.32 nM (nanomolar)  [Temperature = 298.15 K]
DOCKED: USER    
DOCKED: USER    (1) Final Intermolecular Energy     =  -12.04 kcal/mol
DOCKED: USER        vdW + Hbond + desolv Energy     =  -12.04 kcal/mol
DOCKED: USER        Electrostatic Energy            =   +0.00 kcal/mol
DOCKED: USER    (2) Final Total Internal Energy     =   -1.24 kcal/mol
DOCKED: USER    (3) Torsional Free Energy           =   +2.68 kcal/mol
DOCKED: USER    (4) Unbound System's Energy  [=(2)] =   -1.24 kcal/mol
DOCKED: USER    
DOCKED: USER    
DOCKED: USER    NEWDPF move ligand.pdbqt
DOCKED: USER    NEWDPF about 0.056000 -0.347000 0.144000
DOCKED: USER    NEWDPF tran0 27.281913 -16.714507 0.610788
DOCKED: USER    NEWDPF quaternion0 -0.363068 0.773253 0.041916 -0.518174
DOCKED: USER    NEWDPF axisangle0 -0.424504 0.904099 0.049009 -117.580257
DOCKED: USER    NEWDPF quat0 -0.424504 0.904099 0.049009 -117.580257
DOCKED: USER    NEWDPF dihe0 1.98 179.69 -175.83 23.68 -39.23 -166.95 -11.89 92.40 15.52 
DOCKED: USER  keepresnum = 1 
DOCKED: USER  
DOCKED: REMARK  Name = 
DOCKED: REMARK  9 active torsions:
DOCKED: REMARK  status: ('A' for Active; 'I' for Inactive)
DOCKED: REMARK    1  A    between atoms: C_2  and  C_10
DOCKED: REMARK    2  A    between atoms: N_3  and  C_4
DOCKED: REMARK    3  A    between atoms: C_10  and  C_11
DOCKED: REMARK    4  A    between atoms: C_11  and  C_12
DOCKED: REMARK    5  A    between atoms: C_12  and  C_13
DOCKED: REMARK    6  A    between atoms: C_13  and  C_14
DOCKED: REMARK    7  A    between atoms: C_14  and  C_15
DOCKED: REMARK    8  A    between atoms: C_15  and  C_16
DOCKED: REMARK    9  A    between atoms: N_17  and  O_18
DOCKED: REMARK                            x       y       z     vdW  Elec       q    Type
DOCKED: REMARK                         _______ _______ _______ _____ _____    ______ ____
DOCKED: USER                              x       y       z     vdW  Elec       q    Type
DOCKED: USER                           _______ _______ _______ _____ _____    ______ ____
DOCKED: ROOT
DOCKED: ATOM      1  C   UNL     1      26.465 -14.316  -0.074 -0.31 -0.00    +0.000 C 
DOCKED: ENDROOT
DOCKED: BRANCH   1   3
DOCKED: ATOM      2  O   UNL     1      28.644 -13.795   0.744 -0.17 -0.00    +0.000 OA
DOCKED: ATOM      3  C   UNL     1      27.431 -13.993   1.026 -0.29 -0.00    +0.000 C 
DOCKED: ATOM      4  N   UNL     1      26.973 -13.916   2.386 -0.26 -0.00    +0.000 N 
DOCKED: ATOM      5  H   UNL     1      26.001 -13.928   2.547 +0.04 -0.00    +0.000 HD
DOCKED: BRANCH   4   6
DOCKED: ATOM      6  C   UNL     1      27.844 -13.825   3.524 -0.40 -0.00    +0.000 A 
DOCKED: ATOM      7  C   UNL     1      27.513 -13.032   4.640 -0.33 -0.00    +0.000 A 
DOCKED: ATOM      8  C   UNL     1      28.389 -12.945   5.726 -0.40 -0.00    +0.000 A 
DOCKED: ATOM      9  C   UNL     1      29.605 -13.632   5.704 -0.32 -0.00    +0.000 A 
DOCKED: ATOM     10  C   UNL     1      29.953 -14.401   4.590 -0.32 -0.00    +0.000 A 
DOCKED: ATOM     11  C   UNL     1      29.081 -14.490   3.502 -0.28 -0.00    +0.000 A 
DOCKED: ENDBRANCH   4   6
DOCKED: ENDBRANCH   1   3
DOCKED: BRANCH   1  12
DOCKED: ATOM     12  C   UNL     1      26.507 -15.813  -0.397 -0.39 -0.00    +0.000 C 
DOCKED: BRANCH  12  13
DOCKED: ATOM     13  C   UNL     1      25.827 -16.103  -1.743 -0.53 -0.00    +0.000 C 
DOCKED: BRANCH  13  14
DOCKED: ATOM     14  C   UNL     1      24.346 -16.480  -1.588 -0.50 -0.00    +0.000 C 
DOCKED: BRANCH  14  15
DOCKED: ATOM     15  C   UNL     1      24.122 -18.003  -1.564 -0.71 -0.00    +0.000 C 
DOCKED: BRANCH  15  16
DOCKED: ATOM     16  C   UNL     1      23.190 -18.433  -0.423 -0.82 -0.00    +0.000 C 
DOCKED: BRANCH  16  17
DOCKED: ATOM     17  C   UNL     1      21.758 -18.490  -0.867 -0.83 -0.00    +0.000 C 
DOCKED: ATOM     18  N   UNL     1      21.223 -19.686  -1.439 -0.68 -0.00    +0.000 N 
DOCKED: ATOM     19  O   UNL     1      21.015 -17.485  -0.706 -2.07 -0.00    +0.000 OA
DOCKED: ATOM     20  H   UNL     1      21.809 -20.467  -1.574 -0.32 -0.00    +0.000 HD
DOCKED: BRANCH  18  21
DOCKED: ATOM     21  O   UNL     1      19.919 -19.757  -1.797 -1.86 -0.00    +0.000 OA
DOCKED: ATOM     22  H   UNL     1      19.492 -18.903  -1.630 -0.28 -0.00    +0.000 HD
DOCKED: ENDBRANCH  18  21
DOCKED: ENDBRANCH  16  17
DOCKED: ENDBRANCH  15  16
DOCKED: ENDBRANCH  14  15
DOCKED: ENDBRANCH  13  14
DOCKED: ENDBRANCH  12  13
DOCKED: ENDBRANCH   1  12
DOCKED: TORSDOF 9
DOCKED: TER
DOCKED: ENDMDL
________________________________________________________________________________


	BEGINNING GENETIC ALGORITHM DOCKING 29 of 100
Run: 29 Seed: 1133146805 117236433 [ Run 29 of 100 GA/GALS ]
Beginning LAMARCKIAN GENETIC ALGORITHM (LGA), with a maximum of 2500000 energy evaluations.

Final-Value: -12.757


	FINAL GENETIC ALGORITHM DOCKED STATE
	_______________________________________________


Detailed state:  trans 24.271 -15.292 -3.105 quatxyzw -0.263850 0.204620 -0.706717 -0.623750 center 0.056 -0.347 0.144 ntor 9 -125.3991 -75.2349 -140.2141 -144.1477 18.7800 152.9389 -43.8990 12.7734 102.8842
State:	 24.271 -15.292  -3.105  -0.338  0.262 -0.904 -102.819   -125.40  -75.23 -140.21 -144.15   18.78  152.94  -43.90   12.77  102.88

DOCKED: MODEL       29
DOCKED: USER    Run = 29
DOCKED: USER    DPF = ligand_dock.biased.dpf
DOCKED: USER  
DOCKED: USER    Estimated Free Energy of Binding    =   -9.26 kcal/mol  [=(1)+(2)+(3)-(4)]
DOCKED: USER    Estimated Inhibition Constant, Ki   =  162.99 nM (nanomolar)  [Temperature = 298.15 K]
DOCKED: USER    
DOCKED: USER    (1) Final Intermolecular Energy     =  -11.94 kcal/mol
DOCKED: USER        vdW + Hbond + desolv Energy     =  -11.94 kcal/mol
DOCKED: USER        Electrostatic Energy            =   +0.00 kcal/mol
DOCKED: USER    (2) Final Total Internal Energy     =   -0.81 kcal/mol
DOCKED: USER    (3) Torsional Free Energy           =   +2.68 kcal/mol
DOCKED: USER    (4) Unbound System's Energy  [=(2)] =   -0.81 kcal/mol
DOCKED: USER    
DOCKED: USER    
DOCKED: USER    NEWDPF move ligand.pdbqt
DOCKED: USER    NEWDPF about 0.056000 -0.347000 0.144000
DOCKED: USER    NEWDPF tran0 24.270734 -15.292059 -3.105391
DOCKED: USER    NEWDPF quaternion0 -0.263850 0.204620 -0.706717 -0.623750
DOCKED: USER    NEWDPF axisangle0 -0.337567 0.261788 -0.904166 -102.818930
DOCKED: USER    NEWDPF quat0 -0.337567 0.261788 -0.904166 -102.818930
DOCKED: USER    NEWDPF dihe0 -125.40 -75.23 -140.21 -144.15 18.78 152.94 -43.90 12.77 102.88 
DOCKED: USER  keepresnum = 1 
DOCKED: USER  
DOCKED: REMARK  Name = 
DOCKED: REMARK  9 active torsions:
DOCKED: REMARK  status: ('A' for Active; 'I' for Inactive)
DOCKED: REMARK    1  A    between atoms: C_2  and  C_10
DOCKED: REMARK    2  A    between atoms: N_3  and  C_4
DOCKED: REMARK    3  A    between atoms: C_10  and  C_11
DOCKED: REMARK    4  A    between atoms: C_11  and  C_12
DOCKED: REMARK    5  A    between atoms: C_12  and  C_13
DOCKED: REMARK    6  A    between atoms: C_13  and  C_14
DOCKED: REMARK    7  A    between atoms: C_14  and  C_15
DOCKED: REMARK    8  A    between atoms: C_15  and  C_16
DOCKED: REMARK    9  A    between atoms: N_17  and  O_18
DOCKED: REMARK                            x       y       z     vdW  Elec       q    Type
DOCKED: REMARK                         _______ _______ _______ _____ _____    ______ ____
DOCKED: USER                              x       y       z     vdW  Elec       q    Type
DOCKED: USER                           _______ _______ _______ _____ _____    ______ ____
DOCKED: ROOT
DOCKED: ATOM      1  C   UNL     1      26.687 -15.098  -4.112 -0.50 -0.00    +0.000 C 
DOCKED: ENDROOT
DOCKED: BRANCH   1   3
DOCKED: ATOM      2  O   UNL     1      26.246 -13.600  -2.311 -0.27 -0.00    +0.000 OA
DOCKED: ATOM      3  C   UNL     1      26.498 -13.726  -3.540 -0.36 -0.00    +0.000 C 
DOCKED: ATOM      4  N   UNL     1      26.599 -12.572  -4.389 -0.26 -0.00    +0.000 N 
DOCKED: ATOM      5  H   UNL     1      26.943 -12.699  -5.303 -0.01 -0.00    +0.000 HD
DOCKED: BRANCH   4   6
DOCKED: ATOM      6  C   UNL     1      26.230 -11.243  -3.987 -0.18 -0.00    +0.000 A 
DOCKED: ATOM      7  C   UNL     1      25.122 -10.586  -4.556 -0.31 -0.00    +0.000 A 
DOCKED: ATOM      8  C   UNL     1      24.796  -9.285  -4.160 -0.28 -0.00    +0.000 A 
DOCKED: ATOM      9  C   UNL     1      25.577  -8.623  -3.209 -0.19 -0.00    +0.000 A 
DOCKED: ATOM     10  C   UNL     1      26.693  -9.259  -2.658 -0.12 -0.00    +0.000 A 
DOCKED: ATOM     11  C   UNL     1      27.023 -10.559  -3.051 -0.11 -0.00    +0.000 A 
DOCKED: ENDBRANCH   4   6
DOCKED: ENDBRANCH   1   3
DOCKED: BRANCH   1  12
DOCKED: ATOM     12  C   UNL     1      25.509 -16.001  -3.731 -0.42 -0.00    +0.000 C 
DOCKED: BRANCH  12  13
DOCKED: ATOM     13  C   UNL     1      25.632 -16.479  -2.277 -0.56 -0.00    +0.000 C 
DOCKED: BRANCH  13  14
DOCKED: ATOM     14  C   UNL     1      24.563 -17.517  -1.904 -0.63 -0.00    +0.000 C 
DOCKED: BRANCH  14  15
DOCKED: ATOM     15  C   UNL     1      23.935 -17.250  -0.524 -0.64 -0.00    +0.000 C 
DOCKED: BRANCH  15  16
DOCKED: ATOM     16  C   UNL     1      23.076 -18.427  -0.042 -0.76 -0.00    +0.000 C 
DOCKED: BRANCH  16  17
DOCKED: ATOM     17  C   UNL     1      21.756 -18.480  -0.754 -0.85 -0.00    +0.000 C 
DOCKED: ATOM     18  N   UNL     1      21.358 -19.661  -1.455 -0.64 -0.00    +0.000 N 
DOCKED: ATOM     19  O   UNL     1      20.983 -17.487  -0.708 -2.08 -0.00    +0.000 OA
DOCKED: ATOM     20  H   UNL     1      21.970 -20.432  -1.499 -0.29 -0.00    +0.000 HD
DOCKED: BRANCH  18  21
DOCKED: ATOM     21  O   UNL     1      20.148 -19.730  -2.059 -1.87 -0.00    +0.000 OA
DOCKED: ATOM     22  H   UNL     1      19.671 -20.511  -1.738 -0.61 -0.00    +0.000 HD
DOCKED: ENDBRANCH  18  21
DOCKED: ENDBRANCH  16  17
DOCKED: ENDBRANCH  15  16
DOCKED: ENDBRANCH  14  15
DOCKED: ENDBRANCH  13  14
DOCKED: ENDBRANCH  12  13
DOCKED: ENDBRANCH   1  12
DOCKED: TORSDOF 9
DOCKED: TER
DOCKED: ENDMDL
________________________________________________________________________________


	BEGINNING GENETIC ALGORITHM DOCKING 30 of 100
Run: 30 Seed: 2135511640 772891427 [ Run 30 of 100 GA/GALS ]
Beginning LAMARCKIAN GENETIC ALGORITHM (LGA), with a maximum of 2500000 energy evaluations.

Final-Value: -12.589


	FINAL GENETIC ALGORITHM DOCKED STATE
	_______________________________________________


Detailed state:  trans 26.720 -15.288 -2.154 quatxyzw 0.237099 -0.255322 -0.850590 -0.393817 center 0.056 -0.347 0.144 ntor 9 -108.3009 114.5305 163.8662 94.8833 70.4544 160.1917 167.6451 92.5014 91.6169
State:	 26.720 -15.288  -2.154   0.258 -0.278 -0.925 -133.616   -108.30  114.53  163.87   94.88   70.45  160.19  167.65   92.50   91.62

DOCKED: MODEL       30
DOCKED: USER    Run = 30
DOCKED: USER    DPF = ligand_dock.biased.dpf
DOCKED: USER  
DOCKED: USER    Estimated Free Energy of Binding    =   -9.08 kcal/mol  [=(1)+(2)+(3)-(4)]
DOCKED: USER    Estimated Inhibition Constant, Ki   =  221.57 nM (nanomolar)  [Temperature = 298.15 K]
DOCKED: USER    
DOCKED: USER    (1) Final Intermolecular Energy     =  -11.76 kcal/mol
DOCKED: USER        vdW + Hbond + desolv Energy     =  -11.76 kcal/mol
DOCKED: USER        Electrostatic Energy            =   +0.00 kcal/mol
DOCKED: USER    (2) Final Total Internal Energy     =   -0.83 kcal/mol
DOCKED: USER    (3) Torsional Free Energy           =   +2.68 kcal/mol
DOCKED: USER    (4) Unbound System's Energy  [=(2)] =   -0.83 kcal/mol
DOCKED: USER    
DOCKED: USER    
DOCKED: USER    NEWDPF move ligand.pdbqt
DOCKED: USER    NEWDPF about 0.056000 -0.347000 0.144000
DOCKED: USER    NEWDPF tran0 26.719589 -15.288149 -2.153950
DOCKED: USER    NEWDPF quaternion0 0.237099 -0.255322 -0.850590 -0.393817
DOCKED: USER    NEWDPF axisangle0 0.257943 -0.277769 -0.925370 -133.615561
DOCKED: USER    NEWDPF quat0 0.257943 -0.277769 -0.925370 -133.615561
DOCKED: USER    NEWDPF dihe0 -108.30 114.53 163.87 94.88 70.45 160.19 167.65 92.50 91.62 
DOCKED: USER  keepresnum = 1 
DOCKED: USER  
DOCKED: REMARK  Name = 
DOCKED: REMARK  9 active torsions:
DOCKED: REMARK  status: ('A' for Active; 'I' for Inactive)
DOCKED: REMARK    1  A    between atoms: C_2  and  C_10
DOCKED: REMARK    2  A    between atoms: N_3  and  C_4
DOCKED: REMARK    3  A    between atoms: C_10  and  C_11
DOCKED: REMARK    4  A    between atoms: C_11  and  C_12
DOCKED: REMARK    5  A    between atoms: C_12  and  C_13
DOCKED: REMARK    6  A    between atoms: C_13  and  C_14
DOCKED: REMARK    7  A    between atoms: C_14  and  C_15
DOCKED: REMARK    8  A    between atoms: C_15  and  C_16
DOCKED: REMARK    9  A    between atoms: N_17  and  O_18
DOCKED: REMARK                            x       y       z     vdW  Elec       q    Type
DOCKED: REMARK                         _______ _______ _______ _____ _____    ______ ____
DOCKED: USER                              x       y       z     vdW  Elec       q    Type
DOCKED: USER                           _______ _______ _______ _____ _____    ______ ____
DOCKED: ROOT
DOCKED: ATOM      1  C   UNL     1      27.918 -16.080   0.043 -0.30 -0.00    +0.000 C 
DOCKED: ENDROOT
DOCKED: BRANCH   1   3
DOCKED: ATOM      2  O   UNL     1      29.062 -14.019  -0.318 -0.11 -0.00    +0.000 OA
DOCKED: ATOM      3  C   UNL     1      28.045 -14.591   0.161 -0.24 -0.00    +0.000 C 
DOCKED: ATOM      4  N   UNL     1      27.018 -13.831   0.817 -0.29 -0.00    +0.000 N 
DOCKED: ATOM      5  H   UNL     1      26.176 -14.290   1.042 -0.00 -0.00    +0.000 HD
DOCKED: BRANCH   4   6
DOCKED: ATOM      6  C   UNL     1      27.144 -12.443   1.166 -0.24 -0.00    +0.000 A 
DOCKED: ATOM      7  C   UNL     1      27.002 -11.428   0.201 -0.17 +0.00    +0.000 A 
DOCKED: ATOM      8  C   UNL     1      27.148 -10.085   0.564 -0.17 +0.00    +0.000 A 
DOCKED: ATOM      9  C   UNL     1      27.452  -9.745   1.884 -0.16 +0.00    +0.000 A 
DOCKED: ATOM     10  C   UNL     1      27.620 -10.747   2.843 -0.23 +0.00    +0.000 A 
DOCKED: ATOM     11  C   UNL     1      27.474 -12.090   2.484 -0.25 +0.00    +0.000 A 
DOCKED: ENDBRANCH   4   6
DOCKED: ENDBRANCH   1   3
DOCKED: BRANCH   1  12
DOCKED: ATOM     12  C   UNL     1      27.049 -16.446  -1.165 -0.44 -0.00    +0.000 C 
DOCKED: BRANCH  12  13
DOCKED: ATOM     13  C   UNL     1      25.565 -16.511  -0.774 -0.53 -0.00    +0.000 C 
DOCKED: BRANCH  13  14
DOCKED: ATOM     14  C   UNL     1      25.117 -17.930  -0.392 -0.70 -0.00    +0.000 C 
DOCKED: BRANCH  14  15
DOCKED: ATOM     15  C   UNL     1      23.850 -18.374  -1.145 -0.79 -0.00    +0.000 C 
DOCKED: BRANCH  15  16
DOCKED: ATOM     16  C   UNL     1      22.674 -18.638  -0.196 -0.80 -0.00    +0.000 C 
DOCKED: BRANCH  16  17
DOCKED: ATOM     17  C   UNL     1      21.365 -18.674  -0.929 -0.83 -0.00    +0.000 C 
DOCKED: ATOM     18  N   UNL     1      21.075 -19.735  -1.842 -0.62 -0.00    +0.000 N 
DOCKED: ATOM     19  O   UNL     1      20.506 -17.777  -0.715 -2.17 -0.00    +0.000 OA
DOCKED: ATOM     20  H   UNL     1      21.753 -20.428  -2.017 -0.48 -0.00    +0.000 HD
DOCKED: BRANCH  18  21
DOCKED: ATOM     21  O   UNL     1      19.876 -19.797  -2.470 -1.68 -0.00    +0.000 OA
DOCKED: ATOM     22  H   UNL     1      19.356 -20.527  -2.100 -0.54 -0.00    +0.000 HD
DOCKED: ENDBRANCH  18  21
DOCKED: ENDBRANCH  16  17
DOCKED: ENDBRANCH  15  16
DOCKED: ENDBRANCH  14  15
DOCKED: ENDBRANCH  13  14
DOCKED: ENDBRANCH  12  13
DOCKED: ENDBRANCH   1  12
DOCKED: TORSDOF 9
DOCKED: TER
DOCKED: ENDMDL
________________________________________________________________________________


	BEGINNING GENETIC ALGORITHM DOCKING 31 of 100
Run: 31 Seed: 230727707 492240505 [ Run 31 of 100 GA/GALS ]
Beginning LAMARCKIAN GENETIC ALGORITHM (LGA), with a maximum of 2500000 energy evaluations.

Final-Value: -13.820


	FINAL GENETIC ALGORITHM DOCKED STATE
	_______________________________________________


Detailed state:  trans 27.100 -19.493 -1.321 quatxyzw 0.130181 -0.873925 -0.351933 -0.308951 center 0.056 -0.347 0.144 ntor 9 4.9194 -131.7476 -147.7019 -173.4722 159.5483 150.8880 179.8701 -155.6733 74.7576
State:	 27.100 -19.493  -1.321   0.137 -0.919 -0.370 -144.008      4.92 -131.75 -147.70 -173.47  159.55  150.89  179.87 -155.67   74.76

DOCKED: MODEL       31
DOCKED: USER    Run = 31
DOCKED: USER    DPF = ligand_dock.biased.dpf
DOCKED: USER  
DOCKED: USER    Estimated Free Energy of Binding    =   -9.79 kcal/mol  [=(1)+(2)+(3)-(4)]
DOCKED: USER    Estimated Inhibition Constant, Ki   =   66.54 nM (nanomolar)  [Temperature = 298.15 K]
DOCKED: USER    
DOCKED: USER    (1) Final Intermolecular Energy     =  -12.48 kcal/mol
DOCKED: USER        vdW + Hbond + desolv Energy     =  -12.48 kcal/mol
DOCKED: USER        Electrostatic Energy            =   +0.00 kcal/mol
DOCKED: USER    (2) Final Total Internal Energy     =   -1.34 kcal/mol
DOCKED: USER    (3) Torsional Free Energy           =   +2.68 kcal/mol
DOCKED: USER    (4) Unbound System's Energy  [=(2)] =   -1.34 kcal/mol
DOCKED: USER    
DOCKED: USER    
DOCKED: USER    NEWDPF move ligand.pdbqt
DOCKED: USER    NEWDPF about 0.056000 -0.347000 0.144000
DOCKED: USER    NEWDPF tran0 27.100342 -19.492662 -1.320731
DOCKED: USER    NEWDPF quaternion0 0.130181 -0.873925 -0.351933 -0.308951
DOCKED: USER    NEWDPF axisangle0 0.136878 -0.918878 -0.370036 -144.007897
DOCKED: USER    NEWDPF quat0 0.136878 -0.918878 -0.370036 -144.007897
DOCKED: USER    NEWDPF dihe0 4.92 -131.75 -147.70 -173.47 159.55 150.89 179.87 -155.67 74.76 
DOCKED: USER  keepresnum = 1 
DOCKED: USER  
DOCKED: REMARK  Name = 
DOCKED: REMARK  9 active torsions:
DOCKED: REMARK  status: ('A' for Active; 'I' for Inactive)
DOCKED: REMARK    1  A    between atoms: C_2  and  C_10
DOCKED: REMARK    2  A    between atoms: N_3  and  C_4
DOCKED: REMARK    3  A    between atoms: C_10  and  C_11
DOCKED: REMARK    4  A    between atoms: C_11  and  C_12
DOCKED: REMARK    5  A    between atoms: C_12  and  C_13
DOCKED: REMARK    6  A    between atoms: C_13  and  C_14
DOCKED: REMARK    7  A    between atoms: C_14  and  C_15
DOCKED: REMARK    8  A    between atoms: C_15  and  C_16
DOCKED: REMARK    9  A    between atoms: N_17  and  O_18
DOCKED: REMARK                            x       y       z     vdW  Elec       q    Type
DOCKED: REMARK                         _______ _______ _______ _____ _____    ______ ____
DOCKED: USER                              x       y       z     vdW  Elec       q    Type
DOCKED: USER                           _______ _______ _______ _____ _____    ______ ____
DOCKED: ROOT
DOCKED: ATOM      1  C   UNL     1      27.002 -17.098  -0.252 -0.50 -0.00    +0.000 C 
DOCKED: ENDROOT
DOCKED: BRANCH   1   3
DOCKED: ATOM      2  O   UNL     1      28.981 -17.114  -1.581 -0.33 -0.00    +0.000 OA
DOCKED: ATOM      3  C   UNL     1      27.756 -16.822  -1.517 -0.39 -0.00    +0.000 C 
DOCKED: ATOM      4  N   UNL     1      27.086 -16.229  -2.640 -0.34 -0.00    +0.000 N 
DOCKED: ATOM      5  H   UNL     1      26.104 -16.155  -2.606 -0.02 -0.00    +0.000 HD
DOCKED: BRANCH   4   6
DOCKED: ATOM      6  C   UNL     1      27.758 -15.735  -3.810 -0.24 -0.00    +0.000 A 
DOCKED: ATOM      7  C   UNL     1      27.085 -14.955  -4.769 -0.43 -0.00    +0.000 A 
DOCKED: ATOM      8  C   UNL     1      27.759 -14.504  -5.909 -0.29 -0.00    +0.000 A 
DOCKED: ATOM      9  C   UNL     1      29.101 -14.837  -6.108 -0.32 -0.00    +0.000 A 
DOCKED: ATOM     10  C   UNL     1      29.770 -15.631  -5.173 -0.24 -0.00    +0.000 A 
DOCKED: ATOM     11  C   UNL     1      29.100 -16.085  -4.034 -0.24 -0.00    +0.000 A 
DOCKED: ENDBRANCH   4   6
DOCKED: ENDBRANCH   1   3
DOCKED: BRANCH   1  12
DOCKED: ATOM     12  C   UNL     1      26.512 -18.549  -0.229 -0.57 -0.00    +0.000 C 
DOCKED: BRANCH  12  13
DOCKED: ATOM     13  C   UNL     1      25.001 -18.623  -0.493 -0.62 -0.00    +0.000 C 
DOCKED: BRANCH  13  14
DOCKED: ATOM     14  C   UNL     1      24.452 -17.343  -1.141 -0.71 -0.00    +0.000 C 
DOCKED: BRANCH  14  15
DOCKED: ATOM     15  C   UNL     1      23.102 -16.909  -0.544 -0.52 -0.00    +0.000 C 
DOCKED: BRANCH  15  16
DOCKED: ATOM     16  C   UNL     1      22.299 -18.098  -0.001 -0.78 -0.00    +0.000 C 
DOCKED: BRANCH  16  17
DOCKED: ATOM     17  C   UNL     1      21.160 -18.461  -0.909 -0.78 -0.00    +0.000 C 
DOCKED: ATOM     18  N   UNL     1      21.126 -19.736  -1.554 -0.67 -0.00    +0.000 N 
DOCKED: ATOM     19  O   UNL     1      20.215 -17.645  -1.080 -2.03 -0.00    +0.000 OA
DOCKED: ATOM     20  H   UNL     1      21.872 -20.367  -1.428 -0.29 -0.00    +0.000 HD
DOCKED: BRANCH  18  21
DOCKED: ATOM     21  O   UNL     1      20.077 -20.086  -2.337 -1.76 -0.00    +0.000 OA
DOCKED: ATOM     22  H   UNL     1      19.472 -19.333  -2.420 -0.42 -0.00    +0.000 HD
DOCKED: ENDBRANCH  18  21
DOCKED: ENDBRANCH  16  17
DOCKED: ENDBRANCH  15  16
DOCKED: ENDBRANCH  14  15
DOCKED: ENDBRANCH  13  14
DOCKED: ENDBRANCH  12  13
DOCKED: ENDBRANCH   1  12
DOCKED: TORSDOF 9
DOCKED: TER
DOCKED: ENDMDL
________________________________________________________________________________


	BEGINNING GENETIC ALGORITHM DOCKING 32 of 100
Run: 32 Seed: 2006444784 947245312 [ Run 32 of 100 GA/GALS ]
Beginning LAMARCKIAN GENETIC ALGORITHM (LGA), with a maximum of 2500000 energy evaluations.

Final-Value: -14.150


	FINAL GENETIC ALGORITHM DOCKED STATE
	_______________________________________________


Detailed state:  trans 26.545 -16.915 -0.135 quatxyzw -0.427304 0.537934 -0.078294 -0.722432 center 0.056 -0.347 0.144 ntor 9 -15.9639 157.9903 174.2630 114.5256 85.9285 -147.9335 138.3479 -34.1040 -144.4738
State:	 26.545 -16.915  -0.135  -0.618  0.778 -0.113 -87.489    -15.96  157.99  174.26  114.53   85.93 -147.93  138.35  -34.10 -144.47

DOCKED: MODEL       32
DOCKED: USER    Run = 32
DOCKED: USER    DPF = ligand_dock.biased.dpf
DOCKED: USER  
DOCKED: USER    Estimated Free Energy of Binding    =  -10.04 kcal/mol  [=(1)+(2)+(3)-(4)]
DOCKED: USER    Estimated Inhibition Constant, Ki   =   43.43 nM (nanomolar)  [Temperature = 298.15 K]
DOCKED: USER    
DOCKED: USER    (1) Final Intermolecular Energy     =  -12.73 kcal/mol
DOCKED: USER        vdW + Hbond + desolv Energy     =  -12.73 kcal/mol
DOCKED: USER        Electrostatic Energy            =   +0.00 kcal/mol
DOCKED: USER    (2) Final Total Internal Energy     =   -1.42 kcal/mol
DOCKED: USER    (3) Torsional Free Energy           =   +2.68 kcal/mol
DOCKED: USER    (4) Unbound System's Energy  [=(2)] =   -1.42 kcal/mol
DOCKED: USER    
DOCKED: USER    
DOCKED: USER    NEWDPF move ligand.pdbqt
DOCKED: USER    NEWDPF about 0.056000 -0.347000 0.144000
DOCKED: USER    NEWDPF tran0 26.545425 -16.915103 -0.135416
DOCKED: USER    NEWDPF quaternion0 -0.427304 0.537934 -0.078294 -0.722432
DOCKED: USER    NEWDPF axisangle0 -0.617990 0.777989 -0.113233 -87.488648
DOCKED: USER    NEWDPF quat0 -0.617990 0.777989 -0.113233 -87.488648
DOCKED: USER    NEWDPF dihe0 -15.96 157.99 174.26 114.53 85.93 -147.93 138.35 -34.10 -144.47 
DOCKED: USER  keepresnum = 1 
DOCKED: USER  
DOCKED: REMARK  Name = 
DOCKED: REMARK  9 active torsions:
DOCKED: REMARK  status: ('A' for Active; 'I' for Inactive)
DOCKED: REMARK    1  A    between atoms: C_2  and  C_10
DOCKED: REMARK    2  A    between atoms: N_3  and  C_4
DOCKED: REMARK    3  A    between atoms: C_10  and  C_11
DOCKED: REMARK    4  A    between atoms: C_11  and  C_12
DOCKED: REMARK    5  A    between atoms: C_12  and  C_13
DOCKED: REMARK    6  A    between atoms: C_13  and  C_14
DOCKED: REMARK    7  A    between atoms: C_14  and  C_15
DOCKED: REMARK    8  A    between atoms: C_15  and  C_16
DOCKED: REMARK    9  A    between atoms: N_17  and  O_18
DOCKED: REMARK                            x       y       z     vdW  Elec       q    Type
DOCKED: REMARK                         _______ _______ _______ _____ _____    ______ ____
DOCKED: USER                              x       y       z     vdW  Elec       q    Type
DOCKED: USER                           _______ _______ _______ _____ _____    ______ ____
DOCKED: ROOT
DOCKED: ATOM      1  C   UNL     1      26.110 -14.692  -1.461 -0.35 -0.00    +0.000 C 
DOCKED: ENDROOT
DOCKED: BRANCH   1   3
DOCKED: ATOM      2  O   UNL     1      25.135 -13.610   0.427 -0.32 -0.00    +0.000 OA
DOCKED: ATOM      3  C   UNL     1      26.149 -14.188  -0.050 -0.28 -0.00    +0.000 C 
DOCKED: ATOM      4  N   UNL     1      27.334 -14.362   0.743 -0.28 -0.00    +0.000 N 
DOCKED: ATOM      5  H   UNL     1      28.044 -14.946   0.391 -0.04 -0.00    +0.000 HD
DOCKED: BRANCH   4   6
DOCKED: ATOM      6  C   UNL     1      27.547 -13.735   2.018 -0.28 -0.00    +0.000 A 
DOCKED: ATOM      7  C   UNL     1      27.779 -14.496   3.180 -0.32 -0.00    +0.000 A 
DOCKED: ATOM      8  C   UNL     1      27.964 -13.861   4.412 -0.49 -0.00    +0.000 A 
DOCKED: ATOM      9  C   UNL     1      27.904 -12.468   4.500 -0.34 -0.00    +0.000 A 
DOCKED: ATOM     10  C   UNL     1      27.648 -11.707   3.357 -0.25 +0.00    +0.000 A 
DOCKED: ATOM     11  C   UNL     1      27.463 -12.337   2.123 -0.24 -0.00    +0.000 A 
DOCKED: ENDBRANCH   4   6
DOCKED: ENDBRANCH   1   3
DOCKED: BRANCH   1  12
DOCKED: ATOM     12  C   UNL     1      26.482 -16.178  -1.507 -0.46 -0.00    +0.000 C 
DOCKED: BRANCH  12  13
DOCKED: ATOM     13  C   UNL     1      25.958 -16.913  -0.265 -0.45 -0.00    +0.000 C 
DOCKED: BRANCH  13  14
DOCKED: ATOM     14  C   UNL     1      25.398 -18.305  -0.596 -0.68 -0.00    +0.000 C 
DOCKED: BRANCH  14  15
DOCKED: ATOM     15  C   UNL     1      23.999 -18.245  -1.234 -0.78 -0.00    +0.000 C 
DOCKED: BRANCH  15  16
DOCKED: ATOM     16  C   UNL     1      22.888 -18.578  -0.229 -0.81 -0.00    +0.000 C 
DOCKED: BRANCH  16  17
DOCKED: ATOM     17  C   UNL     1      21.535 -18.587  -0.879 -0.83 -0.00    +0.000 C 
DOCKED: ATOM     18  N   UNL     1      21.113 -19.708  -1.659 -0.66 -0.00    +0.000 N 
DOCKED: ATOM     19  O   UNL     1      20.757 -17.610  -0.711 -2.15 -0.00    +0.000 OA
DOCKED: ATOM     20  H   UNL     1      21.728 -20.465  -1.798 -0.40 -0.00    +0.000 HD
DOCKED: BRANCH  18  21
DOCKED: ATOM     21  O   UNL     1      19.875 -19.741  -2.207 -1.89 -0.00    +0.000 OA
DOCKED: ATOM     22  H   UNL     1      19.317 -19.069  -1.784 -0.44 -0.00    +0.000 HD
DOCKED: ENDBRANCH  18  21
DOCKED: ENDBRANCH  16  17
DOCKED: ENDBRANCH  15  16
DOCKED: ENDBRANCH  14  15
DOCKED: ENDBRANCH  13  14
DOCKED: ENDBRANCH  12  13
DOCKED: ENDBRANCH   1  12
DOCKED: TORSDOF 9
DOCKED: TER
DOCKED: ENDMDL
________________________________________________________________________________


	BEGINNING GENETIC ALGORITHM DOCKING 33 of 100
Run: 33 Seed: 1682395116 1905418968 [ Run 33 of 100 GA/GALS ]
Beginning LAMARCKIAN GENETIC ALGORITHM (LGA), with a maximum of 2500000 energy evaluations.

Final-Value: -13.673


	FINAL GENETIC ALGORITHM DOCKED STATE
	_______________________________________________


Detailed state:  trans 26.661 -17.584 -2.685 quatxyzw 0.387111 -0.913712 -0.078009 -0.095864 center 0.056 -0.347 0.144 ntor 9 8.4108 163.9375 73.6990 101.6868 162.4184 -127.7499 82.8838 -9.7130 -83.5618
State:	 26.661 -17.584  -2.685   0.389 -0.918 -0.078 -168.998      8.41  163.94   73.70  101.69  162.42 -127.75   82.88   -9.71  -83.56

DOCKED: MODEL       33
DOCKED: USER    Run = 33
DOCKED: USER    DPF = ligand_dock.biased.dpf
DOCKED: USER  
DOCKED: USER    Estimated Free Energy of Binding    =   -9.63 kcal/mol  [=(1)+(2)+(3)-(4)]
DOCKED: USER    Estimated Inhibition Constant, Ki   =   87.58 nM (nanomolar)  [Temperature = 298.15 K]
DOCKED: USER    
DOCKED: USER    (1) Final Intermolecular Energy     =  -12.31 kcal/mol
DOCKED: USER        vdW + Hbond + desolv Energy     =  -12.31 kcal/mol
DOCKED: USER        Electrostatic Energy            =   +0.00 kcal/mol
DOCKED: USER    (2) Final Total Internal Energy     =   -1.36 kcal/mol
DOCKED: USER    (3) Torsional Free Energy           =   +2.68 kcal/mol
DOCKED: USER    (4) Unbound System's Energy  [=(2)] =   -1.36 kcal/mol
DOCKED: USER    
DOCKED: USER    
DOCKED: USER    NEWDPF move ligand.pdbqt
DOCKED: USER    NEWDPF about 0.056000 -0.347000 0.144000
DOCKED: USER    NEWDPF tran0 26.660937 -17.584138 -2.684594
DOCKED: USER    NEWDPF quaternion0 0.387111 -0.913712 -0.078009 -0.095864
DOCKED: USER    NEWDPF axisangle0 0.388902 -0.917940 -0.078370 -168.997917
DOCKED: USER    NEWDPF quat0 0.388902 -0.917940 -0.078370 -168.997917
DOCKED: USER    NEWDPF dihe0 8.41 163.94 73.70 101.69 162.42 -127.75 82.88 -9.71 -83.56 
DOCKED: USER  keepresnum = 1 
DOCKED: USER  
DOCKED: REMARK  Name = 
DOCKED: REMARK  9 active torsions:
DOCKED: REMARK  status: ('A' for Active; 'I' for Inactive)
DOCKED: REMARK    1  A    between atoms: C_2  and  C_10
DOCKED: REMARK    2  A    between atoms: N_3  and  C_4
DOCKED: REMARK    3  A    between atoms: C_10  and  C_11
DOCKED: REMARK    4  A    between atoms: C_11  and  C_12
DOCKED: REMARK    5  A    between atoms: C_12  and  C_13
DOCKED: REMARK    6  A    between atoms: C_13  and  C_14
DOCKED: REMARK    7  A    between atoms: C_14  and  C_15
DOCKED: REMARK    8  A    between atoms: C_15  and  C_16
DOCKED: REMARK    9  A    between atoms: N_17  and  O_18
DOCKED: REMARK                            x       y       z     vdW  Elec       q    Type
DOCKED: REMARK                         _______ _______ _______ _____ _____    ______ ____
DOCKED: USER                              x       y       z     vdW  Elec       q    Type
DOCKED: USER                           _______ _______ _______ _____ _____    ______ ____
DOCKED: ROOT
DOCKED: ATOM      1  C   UNL     1      25.127 -15.469  -2.929 -0.46 -0.00    +0.000 C 
DOCKED: ENDROOT
DOCKED: BRANCH   1   3
DOCKED: ATOM      2  O   UNL     1      26.461 -13.802  -3.991 -0.38 -0.00    +0.000 OA
DOCKED: ATOM      3  C   UNL     1      26.384 -14.996  -3.594 -0.49 -0.00    +0.000 C 
DOCKED: ATOM      4  N   UNL     1      27.484 -15.902  -3.779 -0.29 -0.00    +0.000 N 
DOCKED: ATOM      5  H   UNL     1      27.445 -16.775  -3.325 -0.01 -0.00    +0.000 HD
DOCKED: BRANCH   4   6
DOCKED: ATOM      6  C   UNL     1      28.638 -15.612  -4.584 -0.30 -0.00    +0.000 A 
DOCKED: ATOM      7  C   UNL     1      29.942 -15.735  -4.069 -0.16 -0.00    +0.000 A 
DOCKED: ATOM      8  C   UNL     1      31.047 -15.427  -4.869 -0.09 -0.00    +0.000 A 
DOCKED: ATOM      9  C   UNL     1      30.862 -14.981  -6.180 -0.16 -0.00    +0.000 A 
DOCKED: ATOM     10  C   UNL     1      29.570 -14.831  -6.691 -0.31 -0.00    +0.000 A 
DOCKED: ATOM     11  C   UNL     1      28.463 -15.137  -5.895 -0.37 -0.00    +0.000 A 
DOCKED: ENDBRANCH   4   6
DOCKED: ENDBRANCH   1   3
DOCKED: BRANCH   1  12
DOCKED: ATOM     12  C   UNL     1      25.241 -16.953  -2.566 -0.47 -0.00    +0.000 C 
DOCKED: BRANCH  12  13
DOCKED: ATOM     13  C   UNL     1      25.681 -17.128  -1.105 -0.61 -0.00    +0.000 C 
DOCKED: BRANCH  13  14
DOCKED: ATOM     14  C   UNL     1      25.441 -18.553  -0.583 -0.61 -0.00    +0.000 C 
DOCKED: BRANCH  14  15
DOCKED: ATOM     15  C   UNL     1      23.970 -18.989  -0.708 -0.70 -0.00    +0.000 C 
DOCKED: BRANCH  15  16
DOCKED: ATOM     16  C   UNL     1      23.009 -17.793  -0.718 -0.80 -0.00    +0.000 C 
DOCKED: BRANCH  16  17
DOCKED: ATOM     17  C   UNL     1      21.611 -18.206  -1.076 -0.70 -0.00    +0.000 C 
DOCKED: ATOM     18  N   UNL     1      21.375 -19.417  -1.797 -0.61 -0.00    +0.000 N 
DOCKED: ATOM     19  O   UNL     1      20.638 -17.493  -0.710 -2.09 +0.00    +0.000 OA
DOCKED: ATOM     20  H   UNL     1      22.138 -19.966  -2.091 -0.51 -0.00    +0.000 HD
DOCKED: BRANCH  18  21
DOCKED: ATOM     21  O   UNL     1      20.112 -19.817  -2.080 -1.86 -0.00    +0.000 OA
DOCKED: ATOM     22  H   UNL     1      19.490 -19.112  -1.844 -0.33 -0.00    +0.000 HD
DOCKED: ENDBRANCH  18  21
DOCKED: ENDBRANCH  16  17
DOCKED: ENDBRANCH  15  16
DOCKED: ENDBRANCH  14  15
DOCKED: ENDBRANCH  13  14
DOCKED: ENDBRANCH  12  13
DOCKED: ENDBRANCH   1  12
DOCKED: TORSDOF 9
DOCKED: TER
DOCKED: ENDMDL
________________________________________________________________________________


	BEGINNING GENETIC ALGORITHM DOCKING 34 of 100
Run: 34 Seed: 1287204676 595265474 [ Run 34 of 100 GA/GALS ]
Beginning LAMARCKIAN GENETIC ALGORITHM (LGA), with a maximum of 2500000 energy evaluations.

Final-Value: -14.166


	FINAL GENETIC ALGORITHM DOCKED STATE
	_______________________________________________


Detailed state:  trans 25.490 -15.406 -1.000 quatxyzw -0.137429 -0.299222 0.689489 0.645124 center 0.056 -0.347 0.144 ntor 9 19.9979 177.2227 -74.5093 -161.0126 31.0209 49.9676 -144.0131 15.0225 161.8723
State:	 25.490 -15.406  -1.000  -0.180 -0.392  0.902 99.650     20.00  177.22  -74.51 -161.01   31.02   49.97 -144.01   15.02  161.87

DOCKED: MODEL       34
DOCKED: USER    Run = 34
DOCKED: USER    DPF = ligand_dock.biased.dpf
DOCKED: USER  
DOCKED: USER    Estimated Free Energy of Binding    =  -10.42 kcal/mol  [=(1)+(2)+(3)-(4)]
DOCKED: USER    Estimated Inhibition Constant, Ki   =   23.04 nM (nanomolar)  [Temperature = 298.15 K]
DOCKED: USER    
DOCKED: USER    (1) Final Intermolecular Energy     =  -13.10 kcal/mol
DOCKED: USER        vdW + Hbond + desolv Energy     =  -13.10 kcal/mol
DOCKED: USER        Electrostatic Energy            =   +0.00 kcal/mol
DOCKED: USER    (2) Final Total Internal Energy     =   -1.06 kcal/mol
DOCKED: USER    (3) Torsional Free Energy           =   +2.68 kcal/mol
DOCKED: USER    (4) Unbound System's Energy  [=(2)] =   -1.06 kcal/mol
DOCKED: USER    
DOCKED: USER    
DOCKED: USER    NEWDPF move ligand.pdbqt
DOCKED: USER    NEWDPF about 0.056000 -0.347000 0.144000
DOCKED: USER    NEWDPF tran0 25.489826 -15.406227 -0.999583
DOCKED: USER    NEWDPF quaternion0 -0.137429 -0.299222 0.689489 0.645124
DOCKED: USER    NEWDPF axisangle0 -0.179863 -0.391611 0.902380 99.650105
DOCKED: USER    NEWDPF quat0 -0.179863 -0.391611 0.902380 99.650105
DOCKED: USER    NEWDPF dihe0 20.00 177.22 -74.51 -161.01 31.02 49.97 -144.01 15.02 161.87 
DOCKED: USER  keepresnum = 1 
DOCKED: USER  
DOCKED: REMARK  Name = 
DOCKED: REMARK  9 active torsions:
DOCKED: REMARK  status: ('A' for Active; 'I' for Inactive)
DOCKED: REMARK    1  A    between atoms: C_2  and  C_10
DOCKED: REMARK    2  A    between atoms: N_3  and  C_4
DOCKED: REMARK    3  A    between atoms: C_10  and  C_11
DOCKED: REMARK    4  A    between atoms: C_11  and  C_12
DOCKED: REMARK    5  A    between atoms: C_12  and  C_13
DOCKED: REMARK    6  A    between atoms: C_13  and  C_14
DOCKED: REMARK    7  A    between atoms: C_14  and  C_15
DOCKED: REMARK    8  A    between atoms: C_15  and  C_16
DOCKED: REMARK    9  A    between atoms: N_17  and  O_18
DOCKED: REMARK                            x       y       z     vdW  Elec       q    Type
DOCKED: REMARK                         _______ _______ _______ _____ _____    ______ ____
DOCKED: USER                              x       y       z     vdW  Elec       q    Type
DOCKED: USER                           _______ _______ _______ _____ _____    ______ ____
DOCKED: ROOT
DOCKED: ATOM      1  C   UNL     1      28.098 -15.405  -0.704 -0.26 -0.00    +0.000 C 
DOCKED: ENDROOT
DOCKED: BRANCH   1   3
DOCKED: ATOM      2  O   UNL     1      26.757 -13.745   0.361 -0.33 -0.00    +0.000 OA
DOCKED: ATOM      3  C   UNL     1      27.668 -14.608   0.490 -0.28 -0.00    +0.000 C 
DOCKED: ATOM      4  N   UNL     1      28.293 -14.827   1.765 -0.19 -0.00    +0.000 N 
DOCKED: ATOM      5  H   UNL     1      28.889 -15.606   1.859 -1.48 -0.00    +0.000 HD
DOCKED: BRANCH   4   6
DOCKED: ATOM      6  C   UNL     1      28.105 -13.980   2.909 -0.32 -0.00    +0.000 A 
DOCKED: ATOM      7  C   UNL     1      27.980 -14.514   4.206 -0.52 -0.00    +0.000 A 
DOCKED: ATOM      8  C   UNL     1      27.778 -13.668   5.300 -0.42 -0.00    +0.000 A 
DOCKED: ATOM      9  C   UNL     1      27.684 -12.286   5.111 -0.30 +0.00    +0.000 A 
DOCKED: ATOM     10  C   UNL     1      27.782 -11.749   3.825 -0.28 +0.00    +0.000 A 
DOCKED: ATOM     11  C   UNL     1      27.983 -12.592   2.728 -0.23 -0.00    +0.000 A 
DOCKED: ENDBRANCH   4   6
DOCKED: ENDBRANCH   1   3
DOCKED: BRANCH   1  12
DOCKED: ATOM     12  C   UNL     1      26.876 -15.970  -1.436 -0.40 -0.00    +0.000 C 
DOCKED: BRANCH  12  13
DOCKED: ATOM     13  C   UNL     1      25.639 -15.960  -0.526 -0.30 -0.00    +0.000 C 
DOCKED: BRANCH  13  14
DOCKED: ATOM     14  C   UNL     1      24.449 -16.715  -1.138 -0.63 -0.00    +0.000 C 
DOCKED: BRANCH  14  15
DOCKED: ATOM     15  C   UNL     1      23.970 -17.882  -0.255 -0.73 -0.00    +0.000 C 
DOCKED: BRANCH  15  16
DOCKED: ATOM     16  C   UNL     1      23.221 -18.949  -1.063 -0.81 -0.00    +0.000 C 
DOCKED: BRANCH  16  17
DOCKED: ATOM     17  C   UNL     1      21.741 -18.702  -1.073 -0.82 -0.00    +0.000 C 
DOCKED: ATOM     18  N   UNL     1      20.845 -19.687  -1.593 -0.76 -0.00    +0.000 N 
DOCKED: ATOM     19  O   UNL     1      21.286 -17.629  -0.593 -1.78 -0.00    +0.000 OA
DOCKED: ATOM     20  H   UNL     1      21.204 -20.519  -1.978 -0.39 -0.00    +0.000 HD
DOCKED: BRANCH  18  21
DOCKED: ATOM     21  O   UNL     1      19.506 -19.487  -1.560 -1.44 -0.00    +0.000 OA
DOCKED: ATOM     22  H   UNL     1      19.323 -18.540  -1.459 -0.43 -0.00    +0.000 HD
DOCKED: ENDBRANCH  18  21
DOCKED: ENDBRANCH  16  17
DOCKED: ENDBRANCH  15  16
DOCKED: ENDBRANCH  14  15
DOCKED: ENDBRANCH  13  14
DOCKED: ENDBRANCH  12  13
DOCKED: ENDBRANCH   1  12
DOCKED: TORSDOF 9
DOCKED: TER
DOCKED: ENDMDL
________________________________________________________________________________


	BEGINNING GENETIC ALGORITHM DOCKING 35 of 100
Run: 35 Seed: 256830343 1995642440 [ Run 35 of 100 GA/GALS ]
Beginning LAMARCKIAN GENETIC ALGORITHM (LGA), with a maximum of 2500000 energy evaluations.

Final-Value: -12.827


	FINAL GENETIC ALGORITHM DOCKED STATE
	_______________________________________________


Detailed state:  trans 25.018 -18.129 0.517 quatxyzw 0.754955 0.092868 -0.291245 0.580168 center 0.056 -0.347 0.144 ntor 9 15.9180 -156.7113 11.1477 -156.5502 -73.5418 93.7321 -77.6360 -96.9234 43.5862
State:	 25.018 -18.129   0.517   0.927  0.114 -0.358 109.075     15.92 -156.71   11.15 -156.55  -73.54   93.73  -77.64  -96.92   43.59

DOCKED: MODEL       35
DOCKED: USER    Run = 35
DOCKED: USER    DPF = ligand_dock.biased.dpf
DOCKED: USER  
DOCKED: USER    Estimated Free Energy of Binding    =   -8.92 kcal/mol  [=(1)+(2)+(3)-(4)]
DOCKED: USER    Estimated Inhibition Constant, Ki   =  287.49 nM (nanomolar)  [Temperature = 298.15 K]
DOCKED: USER    
DOCKED: USER    (1) Final Intermolecular Energy     =  -11.61 kcal/mol
DOCKED: USER        vdW + Hbond + desolv Energy     =  -11.61 kcal/mol
DOCKED: USER        Electrostatic Energy            =   +0.00 kcal/mol
DOCKED: USER    (2) Final Total Internal Energy     =   -1.22 kcal/mol
DOCKED: USER    (3) Torsional Free Energy           =   +2.68 kcal/mol
DOCKED: USER    (4) Unbound System's Energy  [=(2)] =   -1.22 kcal/mol
DOCKED: USER    
DOCKED: USER    
DOCKED: USER    NEWDPF move ligand.pdbqt
DOCKED: USER    NEWDPF about 0.056000 -0.347000 0.144000
DOCKED: USER    NEWDPF tran0 25.018329 -18.129012 0.517311
DOCKED: USER    NEWDPF quaternion0 0.754955 0.092868 -0.291245 0.580168
DOCKED: USER    NEWDPF axisangle0 0.926897 0.114019 -0.357577 109.075260
DOCKED: USER    NEWDPF quat0 0.926897 0.114019 -0.357577 109.075260
DOCKED: USER    NEWDPF dihe0 15.92 -156.71 11.15 -156.55 -73.54 93.73 -77.64 -96.92 43.59 
DOCKED: USER  keepresnum = 1 
DOCKED: USER  
DOCKED: REMARK  Name = 
DOCKED: REMARK  9 active torsions:
DOCKED: REMARK  status: ('A' for Active; 'I' for Inactive)
DOCKED: REMARK    1  A    between atoms: C_2  and  C_10
DOCKED: REMARK    2  A    between atoms: N_3  and  C_4
DOCKED: REMARK    3  A    between atoms: C_10  and  C_11
DOCKED: REMARK    4  A    between atoms: C_11  and  C_12
DOCKED: REMARK    5  A    between atoms: C_12  and  C_13
DOCKED: REMARK    6  A    between atoms: C_13  and  C_14
DOCKED: REMARK    7  A    between atoms: C_14  and  C_15
DOCKED: REMARK    8  A    between atoms: C_15  and  C_16
DOCKED: REMARK    9  A    between atoms: N_17  and  O_18
DOCKED: REMARK                            x       y       z     vdW  Elec       q    Type
DOCKED: REMARK                         _______ _______ _______ _____ _____    ______ ____
DOCKED: USER                              x       y       z     vdW  Elec       q    Type
DOCKED: USER                           _______ _______ _______ _____ _____    ______ ____
DOCKED: ROOT
DOCKED: ATOM      1  C   UNL     1      23.709 -18.525  -1.723 -0.65 -0.00    +0.000 C 
DOCKED: ENDROOT
DOCKED: BRANCH   1   3
DOCKED: ATOM      2  O   UNL     1      22.734 -18.034   0.397 -0.77 -0.00    +0.000 OA
DOCKED: ATOM      3  C   UNL     1      22.601 -18.608  -0.718 -0.84 -0.00    +0.000 C 
DOCKED: ATOM      4  N   UNL     1      21.403 -19.339  -1.026 -0.78 -0.00    +0.000 N 
DOCKED: ATOM      5  H   UNL     1      21.274 -19.644  -1.954 -0.21 -0.00    +0.000 HD
DOCKED: BRANCH   4   6
DOCKED: ATOM      6  C   UNL     1      20.383 -19.654  -0.065 -0.75 -0.00    +0.000 A 
DOCKED: ATOM      7  C   UNL     1      19.115 -20.117  -0.465 -0.51 -0.00    +0.000 A 
DOCKED: ATOM      8  C   UNL     1      18.134 -20.398   0.491 -0.46 -0.00    +0.000 A 
DOCKED: ATOM      9  C   UNL     1      18.402 -20.205   1.849 -0.64 -0.00    +0.000 A 
DOCKED: ATOM     10  C   UNL     1      19.649 -19.722   2.253 -0.53 -0.00    +0.000 A 
DOCKED: ATOM     11  C   UNL     1      20.632 -19.440   1.301 -0.26 -0.00    +0.000 A 
DOCKED: ENDBRANCH   4   6
DOCKED: ENDBRANCH   1   3
DOCKED: BRANCH   1  12
DOCKED: ATOM     12  C   UNL     1      25.017 -18.108  -1.041 -0.68 -0.00    +0.000 C 
DOCKED: BRANCH  12  13
DOCKED: ATOM     13  C   UNL     1      25.761 -17.057  -1.878 -0.55 -0.00    +0.000 C 
DOCKED: BRANCH  13  14
DOCKED: ATOM     14  C   UNL     1      25.145 -15.656  -1.749 -0.43 -0.00    +0.000 C 
DOCKED: BRANCH  14  15
DOCKED: ATOM     15  C   UNL     1      26.080 -14.548  -2.264 -0.37 -0.00    +0.000 C 
DOCKED: BRANCH  15  16
DOCKED: ATOM     16  C   UNL     1      25.727 -14.108  -3.691 -0.49 -0.00    +0.000 C 
DOCKED: BRANCH  16  17
DOCKED: ATOM     17  C   UNL     1      26.428 -14.947  -4.721 -0.53 -0.00    +0.000 C 
DOCKED: ATOM     18  N   UNL     1      27.761 -14.630  -5.128 -0.36 -0.00    +0.000 N 
DOCKED: ATOM     19  O   UNL     1      25.844 -15.953  -5.206 -1.12 +0.00    +0.000 OA
DOCKED: ATOM     20  H   UNL     1      28.209 -13.837  -4.756 +0.00 -0.00    +0.000 HD
DOCKED: BRANCH  18  21
DOCKED: ATOM     21  O   UNL     1      28.413 -15.412  -6.021 -0.66 +0.00    +0.000 OA
DOCKED: ATOM     22  H   UNL     1      27.775 -15.985  -6.474 -0.01 +0.00    +0.000 HD
DOCKED: ENDBRANCH  18  21
DOCKED: ENDBRANCH  16  17
DOCKED: ENDBRANCH  15  16
DOCKED: ENDBRANCH  14  15
DOCKED: ENDBRANCH  13  14
DOCKED: ENDBRANCH  12  13
DOCKED: ENDBRANCH   1  12
DOCKED: TORSDOF 9
DOCKED: TER
DOCKED: ENDMDL
________________________________________________________________________________


	BEGINNING GENETIC ALGORITHM DOCKING 36 of 100
Run: 36 Seed: 52526966 1027568663 [ Run 36 of 100 GA/GALS ]
Beginning LAMARCKIAN GENETIC ALGORITHM (LGA), with a maximum of 2500000 energy evaluations.

Final-Value: -14.904


	FINAL GENETIC ALGORITHM DOCKED STATE
	_______________________________________________


Detailed state:  trans 24.712 -14.790 -1.043 quatxyzw -0.197278 -0.305956 0.751845 0.549728 center 0.056 -0.347 0.144 ntor 9 -143.6292 174.0546 136.6262 69.6012 154.8920 145.9147 -123.1748 108.4113 115.7258
State:	 24.712 -14.790  -1.043  -0.236 -0.366  0.900 113.303   -143.63  174.05  136.63   69.60  154.89  145.91 -123.17  108.41  115.73

DOCKED: MODEL       36
DOCKED: USER    Run = 36
DOCKED: USER    DPF = ligand_dock.biased.dpf
DOCKED: USER  
DOCKED: USER    Estimated Free Energy of Binding    =  -11.32 kcal/mol  [=(1)+(2)+(3)-(4)]
DOCKED: USER    Estimated Inhibition Constant, Ki   =    5.03 nM (nanomolar)  [Temperature = 298.15 K]
DOCKED: USER    
DOCKED: USER    (1) Final Intermolecular Energy     =  -14.01 kcal/mol
DOCKED: USER        vdW + Hbond + desolv Energy     =  -14.01 kcal/mol
DOCKED: USER        Electrostatic Energy            =   +0.00 kcal/mol
DOCKED: USER    (2) Final Total Internal Energy     =   -0.90 kcal/mol
DOCKED: USER    (3) Torsional Free Energy           =   +2.68 kcal/mol
DOCKED: USER    (4) Unbound System's Energy  [=(2)] =   -0.90 kcal/mol
DOCKED: USER    
DOCKED: USER    
DOCKED: USER    NEWDPF move ligand.pdbqt
DOCKED: USER    NEWDPF about 0.056000 -0.347000 0.144000
DOCKED: USER    NEWDPF tran0 24.711627 -14.790276 -1.042716
DOCKED: USER    NEWDPF quaternion0 -0.197278 -0.305956 0.751845 0.549728
DOCKED: USER    NEWDPF axisangle0 -0.236164 -0.366263 0.900043 113.303264
DOCKED: USER    NEWDPF quat0 -0.236164 -0.366263 0.900043 113.303264
DOCKED: USER    NEWDPF dihe0 -143.63 174.05 136.63 69.60 154.89 145.91 -123.17 108.41 115.73 
DOCKED: USER  keepresnum = 1 
DOCKED: USER  
DOCKED: REMARK  Name = 
DOCKED: REMARK  9 active torsions:
DOCKED: REMARK  status: ('A' for Active; 'I' for Inactive)
DOCKED: REMARK    1  A    between atoms: C_2  and  C_10
DOCKED: REMARK    2  A    between atoms: N_3  and  C_4
DOCKED: REMARK    3  A    between atoms: C_10  and  C_11
DOCKED: REMARK    4  A    between atoms: C_11  and  C_12
DOCKED: REMARK    5  A    between atoms: C_12  and  C_13
DOCKED: REMARK    6  A    between atoms: C_13  and  C_14
DOCKED: REMARK    7  A    between atoms: C_14  and  C_15
DOCKED: REMARK    8  A    between atoms: C_15  and  C_16
DOCKED: REMARK    9  A    between atoms: N_17  and  O_18
DOCKED: REMARK                            x       y       z     vdW  Elec       q    Type
DOCKED: REMARK                         _______ _______ _______ _____ _____    ______ ____
DOCKED: USER                              x       y       z     vdW  Elec       q    Type
DOCKED: USER                           _______ _______ _______ _____ _____    ______ ____
DOCKED: ROOT
DOCKED: ATOM      1  C   UNL     1      27.238 -15.447  -0.773 -0.33 -0.00    +0.000 C 
DOCKED: ENDROOT
DOCKED: BRANCH   1   3
DOCKED: ATOM      2  O   UNL     1      26.043 -13.847   0.530 -0.36 -0.00    +0.000 OA
DOCKED: ATOM      3  C   UNL     1      27.005 -14.661   0.482 -0.27 -0.00    +0.000 C 
DOCKED: ATOM      4  N   UNL     1      27.874 -14.836   1.612 -0.27 -0.00    +0.000 N 
DOCKED: ATOM      5  H   UNL     1      28.516 -15.583   1.591 -1.08 -0.00    +0.000 HD
DOCKED: BRANCH   4   6
DOCKED: ATOM      6  C   UNL     1      27.866 -13.987   2.771 -0.32 -0.00    +0.000 A 
DOCKED: ATOM      7  C   UNL     1      27.953 -14.521   4.071 -0.50 -0.00    +0.000 A 
DOCKED: ATOM      8  C   UNL     1      27.923 -13.673   5.183 -0.46 -0.00    +0.000 A 
DOCKED: ATOM      9  C   UNL     1      27.790 -12.293   5.011 -0.36 +0.00    +0.000 A 
DOCKED: ATOM     10  C   UNL     1      27.677 -11.758   3.725 -0.26 +0.00    +0.000 A 
DOCKED: ATOM     11  C   UNL     1      27.707 -12.601   2.611 -0.25 -0.00    +0.000 A 
DOCKED: ENDBRANCH   4   6
DOCKED: ENDBRANCH   1   3
DOCKED: BRANCH   1  12
DOCKED: ATOM     12  C   UNL     1      25.922 -15.640  -1.533 -0.47 -0.00    +0.000 C 
DOCKED: BRANCH  12  13
DOCKED: ATOM     13  C   UNL     1      24.939 -16.494  -0.719 -0.52 -0.00    +0.000 C 
DOCKED: BRANCH  13  14
DOCKED: ATOM     14  C   UNL     1      25.274 -17.992  -0.772 -0.69 -0.00    +0.000 C 
DOCKED: BRANCH  14  15
DOCKED: ATOM     15  C   UNL     1      24.017 -18.880  -0.812 -0.72 -0.00    +0.000 C 
DOCKED: BRANCH  15  16
DOCKED: ATOM     16  C   UNL     1      22.850 -18.267  -0.026 -0.78 -0.00    +0.000 C 
DOCKED: BRANCH  16  17
DOCKED: ATOM     17  C   UNL     1      21.547 -18.420  -0.756 -0.84 -0.00    +0.000 C 
DOCKED: ATOM     18  N   UNL     1      21.237 -19.638  -1.436 -0.69 -0.00    +0.000 N 
DOCKED: ATOM     19  O   UNL     1      20.712 -17.477  -0.742 -2.07 +0.00    +0.000 OA
DOCKED: ATOM     20  H   UNL     1      21.896 -20.369  -1.455 -0.30 -0.00    +0.000 HD
DOCKED: BRANCH  18  21
DOCKED: ATOM     21  O   UNL     1      20.043 -19.797  -2.056 -1.87 -0.00    +0.000 OA
DOCKED: ATOM     22  H   UNL     1      19.746 -20.714  -1.953 -0.59 -0.00    +0.000 HD
DOCKED: ENDBRANCH  18  21
DOCKED: ENDBRANCH  16  17
DOCKED: ENDBRANCH  15  16
DOCKED: ENDBRANCH  14  15
DOCKED: ENDBRANCH  13  14
DOCKED: ENDBRANCH  12  13
DOCKED: ENDBRANCH   1  12
DOCKED: TORSDOF 9
DOCKED: TER
DOCKED: ENDMDL
________________________________________________________________________________


	BEGINNING GENETIC ALGORITHM DOCKING 37 of 100
Run: 37 Seed: 2094380457 245691532 [ Run 37 of 100 GA/GALS ]
Beginning LAMARCKIAN GENETIC ALGORITHM (LGA), with a maximum of 2500000 energy evaluations.

Final-Value: -13.740


	FINAL GENETIC ALGORITHM DOCKED STATE
	_______________________________________________


Detailed state:  trans 27.199 -14.706 -1.801 quatxyzw 0.821739 -0.404573 0.399892 -0.033932 center 0.056 -0.347 0.144 ntor 9 20.2518 175.5620 -117.4228 56.2934 -10.3086 -138.3719 22.5063 -103.5044 -72.6436
State:	 27.199 -14.706  -1.801   0.822 -0.405  0.400 -176.111     20.25  175.56 -117.42   56.29  -10.31 -138.37   22.51 -103.50  -72.64

DOCKED: MODEL       37
DOCKED: USER    Run = 37
DOCKED: USER    DPF = ligand_dock.biased.dpf
DOCKED: USER  
DOCKED: USER    Estimated Free Energy of Binding    =   -9.89 kcal/mol  [=(1)+(2)+(3)-(4)]
DOCKED: USER    Estimated Inhibition Constant, Ki   =   56.22 nM (nanomolar)  [Temperature = 298.15 K]
DOCKED: USER    
DOCKED: USER    (1) Final Intermolecular Energy     =  -12.58 kcal/mol
DOCKED: USER        vdW + Hbond + desolv Energy     =  -12.58 kcal/mol
DOCKED: USER        Electrostatic Energy            =   +0.00 kcal/mol
DOCKED: USER    (2) Final Total Internal Energy     =   -1.16 kcal/mol
DOCKED: USER    (3) Torsional Free Energy           =   +2.68 kcal/mol
DOCKED: USER    (4) Unbound System's Energy  [=(2)] =   -1.16 kcal/mol
DOCKED: USER    
DOCKED: USER    
DOCKED: USER    NEWDPF move ligand.pdbqt
DOCKED: USER    NEWDPF about 0.056000 -0.347000 0.144000
DOCKED: USER    NEWDPF tran0 27.199206 -14.706211 -1.800615
DOCKED: USER    NEWDPF quaternion0 0.821739 -0.404573 0.399892 -0.033932
DOCKED: USER    NEWDPF axisangle0 0.822213 -0.404806 0.400123 -176.110976
DOCKED: USER    NEWDPF quat0 0.822213 -0.404806 0.400123 -176.110976
DOCKED: USER    NEWDPF dihe0 20.25 175.56 -117.42 56.29 -10.31 -138.37 22.51 -103.50 -72.64 
DOCKED: USER  keepresnum = 1 
DOCKED: USER  
DOCKED: REMARK  Name = 
DOCKED: REMARK  9 active torsions:
DOCKED: REMARK  status: ('A' for Active; 'I' for Inactive)
DOCKED: REMARK    1  A    between atoms: C_2  and  C_10
DOCKED: REMARK    2  A    between atoms: N_3  and  C_4
DOCKED: REMARK    3  A    between atoms: C_10  and  C_11
DOCKED: REMARK    4  A    between atoms: C_11  and  C_12
DOCKED: REMARK    5  A    between atoms: C_12  and  C_13
DOCKED: REMARK    6  A    between atoms: C_13  and  C_14
DOCKED: REMARK    7  A    between atoms: C_14  and  C_15
DOCKED: REMARK    8  A    between atoms: C_15  and  C_16
DOCKED: REMARK    9  A    between atoms: N_17  and  O_18
DOCKED: REMARK                            x       y       z     vdW  Elec       q    Type
DOCKED: REMARK                         _______ _______ _______ _____ _____    ______ ____
DOCKED: USER                              x       y       z     vdW  Elec       q    Type
DOCKED: USER                           _______ _______ _______ _____ _____    ______ ____
DOCKED: ROOT
DOCKED: ATOM      1  C   UNL     1      25.781 -16.315  -3.314 -0.30 -0.00    +0.000 C 
DOCKED: ENDROOT
DOCKED: BRANCH   1   3
DOCKED: ATOM      2  O   UNL     1      26.602 -15.424  -5.368 -1.14 +0.00    +0.000 OA
DOCKED: ATOM      3  C   UNL     1      26.049 -15.184  -4.260 -0.59 -0.00    +0.000 C 
DOCKED: ATOM      4  N   UNL     1      25.681 -13.843  -3.901 -0.46 -0.00    +0.000 N 
DOCKED: ATOM      5  H   UNL     1      25.120 -13.716  -3.101 -0.03 -0.00    +0.000 HD
DOCKED: BRANCH   4   6
DOCKED: ATOM      6  C   UNL     1      26.081 -12.675  -4.635 -0.27 -0.00    +0.000 A 
DOCKED: ATOM      7  C   UNL     1      25.184 -11.616  -4.875 -0.33 -0.00    +0.000 A 
DOCKED: ATOM      8  C   UNL     1      25.594 -10.499  -5.610 -0.27 -0.00    +0.000 A 
DOCKED: ATOM      9  C   UNL     1      26.892 -10.435  -6.125 -0.13 -0.00    +0.000 A 
DOCKED: ATOM     10  C   UNL     1      27.780 -11.493  -5.913 -0.13 -0.00    +0.000 A 
DOCKED: ATOM     11  C   UNL     1      27.374 -12.611  -5.179 -0.21 -0.00    +0.000 A 
DOCKED: ENDBRANCH   4   6
DOCKED: ENDBRANCH   1   3
DOCKED: BRANCH   1  12
DOCKED: ATOM     12  C   UNL     1      26.552 -16.109  -2.005 -0.45 -0.00    +0.000 C 
DOCKED: BRANCH  12  13
DOCKED: ATOM     13  C   UNL     1      25.602 -15.707  -0.867 -0.44 -0.00    +0.000 C 
DOCKED: BRANCH  13  14
DOCKED: ATOM     14  C   UNL     1      24.693 -16.862  -0.422 -0.40 -0.00    +0.000 C 
DOCKED: BRANCH  14  15
DOCKED: ATOM     15  C   UNL     1      23.673 -17.264  -1.502 -0.59 -0.00    +0.000 C 
DOCKED: BRANCH  15  16
DOCKED: ATOM     16  C   UNL     1      23.082 -18.658  -1.252 -0.80 -0.00    +0.000 C 
DOCKED: BRANCH  16  17
DOCKED: ATOM     17  C   UNL     1      21.582 -18.624  -1.198 -0.67 -0.00    +0.000 C 
DOCKED: ATOM     18  N   UNL     1      20.815 -19.733  -1.672 -0.76 -0.00    +0.000 N 
DOCKED: ATOM     19  O   UNL     1      21.000 -17.623  -0.702 -2.10 -0.00    +0.000 OA
DOCKED: ATOM     20  H   UNL     1      21.273 -20.509  -2.069 -0.42 -0.00    +0.000 HD
DOCKED: BRANCH  18  21
DOCKED: ATOM     21  O   UNL     1      19.464 -19.726  -1.581 -1.53 -0.00    +0.000 OA
DOCKED: ATOM     22  H   UNL     1      19.152 -18.813  -1.480 -0.55 -0.00    +0.000 HD
DOCKED: ENDBRANCH  18  21
DOCKED: ENDBRANCH  16  17
DOCKED: ENDBRANCH  15  16
DOCKED: ENDBRANCH  14  15
DOCKED: ENDBRANCH  13  14
DOCKED: ENDBRANCH  12  13
DOCKED: ENDBRANCH   1  12
DOCKED: TORSDOF 9
DOCKED: TER
DOCKED: ENDMDL
________________________________________________________________________________


	BEGINNING GENETIC ALGORITHM DOCKING 38 of 100
Run: 38 Seed: 1952537786 1433766700 [ Run 38 of 100 GA/GALS ]
Beginning LAMARCKIAN GENETIC ALGORITHM (LGA), with a maximum of 2500000 energy evaluations.

Final-Value: -12.811


	FINAL GENETIC ALGORITHM DOCKED STATE
	_______________________________________________


Detailed state:  trans 25.438 -15.758 -2.796 quatxyzw 0.112041 0.962887 -0.144903 0.198237 center 0.056 -0.347 0.144 ntor 9 -108.1597 122.4378 65.7668 158.5097 -4.8158 -160.6881 -31.2331 70.8960 -115.5891
State:	 25.438 -15.758  -2.796   0.114  0.982 -0.148 157.132   -108.16  122.44   65.77  158.51   -4.82 -160.69  -31.23   70.90 -115.59

DOCKED: MODEL       38
DOCKED: USER    Run = 38
DOCKED: USER    DPF = ligand_dock.biased.dpf
DOCKED: USER  
DOCKED: USER    Estimated Free Energy of Binding    =   -9.02 kcal/mol  [=(1)+(2)+(3)-(4)]
DOCKED: USER    Estimated Inhibition Constant, Ki   =  243.71 nM (nanomolar)  [Temperature = 298.15 K]
DOCKED: USER    
DOCKED: USER    (1) Final Intermolecular Energy     =  -11.71 kcal/mol
DOCKED: USER        vdW + Hbond + desolv Energy     =  -11.71 kcal/mol
DOCKED: USER        Electrostatic Energy            =   +0.00 kcal/mol
DOCKED: USER    (2) Final Total Internal Energy     =   -1.10 kcal/mol
DOCKED: USER    (3) Torsional Free Energy           =   +2.68 kcal/mol
DOCKED: USER    (4) Unbound System's Energy  [=(2)] =   -1.10 kcal/mol
DOCKED: USER    
DOCKED: USER    
DOCKED: USER    NEWDPF move ligand.pdbqt
DOCKED: USER    NEWDPF about 0.056000 -0.347000 0.144000
DOCKED: USER    NEWDPF tran0 25.437644 -15.757533 -2.796322
DOCKED: USER    NEWDPF quaternion0 0.112041 0.962887 -0.144903 0.198237
DOCKED: USER    NEWDPF axisangle0 0.114310 0.982384 -0.147837 157.132208
DOCKED: USER    NEWDPF quat0 0.114310 0.982384 -0.147837 157.132208
DOCKED: USER    NEWDPF dihe0 -108.16 122.44 65.77 158.51 -4.82 -160.69 -31.23 70.90 -115.59 
DOCKED: USER  keepresnum = 1 
DOCKED: USER  
DOCKED: REMARK  Name = 
DOCKED: REMARK  9 active torsions:
DOCKED: REMARK  status: ('A' for Active; 'I' for Inactive)
DOCKED: REMARK    1  A    between atoms: C_2  and  C_10
DOCKED: REMARK    2  A    between atoms: N_3  and  C_4
DOCKED: REMARK    3  A    between atoms: C_10  and  C_11
DOCKED: REMARK    4  A    between atoms: C_11  and  C_12
DOCKED: REMARK    5  A    between atoms: C_12  and  C_13
DOCKED: REMARK    6  A    between atoms: C_13  and  C_14
DOCKED: REMARK    7  A    between atoms: C_14  and  C_15
DOCKED: REMARK    8  A    between atoms: C_15  and  C_16
DOCKED: REMARK    9  A    between atoms: N_17  and  O_18
DOCKED: REMARK                            x       y       z     vdW  Elec       q    Type
DOCKED: REMARK                         _______ _______ _______ _____ _____    ______ ____
DOCKED: USER                              x       y       z     vdW  Elec       q    Type
DOCKED: USER                           _______ _______ _______ _____ _____    ______ ____
DOCKED: ROOT
DOCKED: ATOM      1  C   UNL     1      25.977 -13.772  -4.425 -0.42 -0.00    +0.000 C 
DOCKED: ENDROOT
DOCKED: BRANCH   1   3
DOCKED: ATOM      2  O   UNL     1      26.323 -15.831  -5.577 -1.10 +0.00    +0.000 OA
DOCKED: ATOM      3  C   UNL     1      26.853 -14.853  -4.982 -0.47 -0.00    +0.000 C 
DOCKED: ATOM      4  N   UNL     1      28.279 -14.772  -4.834 -0.29 -0.00    +0.000 N 
DOCKED: ATOM      5  H   UNL     1      28.662 -13.928  -4.500 +0.00 -0.00    +0.000 HD
DOCKED: BRANCH   4   6
DOCKED: ATOM      6  C   UNL     1      29.182 -15.847  -5.140 -0.30 -0.00    +0.000 A 
DOCKED: ATOM      7  C   UNL     1      29.666 -16.048  -6.447 -0.28 -0.00    +0.000 A 
DOCKED: ATOM      8  C   UNL     1      30.528 -17.114  -6.721 -0.31 -0.00    +0.000 A 
DOCKED: ATOM      9  C   UNL     1      30.903 -17.995  -5.703 -0.26 -0.00    +0.000 A 
DOCKED: ATOM     10  C   UNL     1      30.407 -17.816  -4.409 -0.24 -0.00    +0.000 A 
DOCKED: ATOM     11  C   UNL     1      29.545 -16.752  -4.130 -0.22 -0.00    +0.000 A 
DOCKED: ENDBRANCH   4   6
DOCKED: ENDBRANCH   1   3
DOCKED: BRANCH   1  12
DOCKED: ATOM     12  C   UNL     1      25.086 -14.329  -3.311 -0.38 -0.00    +0.000 C 
DOCKED: BRANCH  12  13
DOCKED: ATOM     13  C   UNL     1      25.930 -14.808  -2.121 -0.41 -0.00    +0.000 C 
DOCKED: BRANCH  13  14
DOCKED: ATOM     14  C   UNL     1      25.829 -16.324  -1.896 -0.54 -0.00    +0.000 C 
DOCKED: BRANCH  14  15
DOCKED: ATOM     15  C   UNL     1      24.679 -16.707  -0.948 -0.61 -0.00    +0.000 C 
DOCKED: BRANCH  15  16
DOCKED: ATOM     16  C   UNL     1      24.388 -18.213  -0.968 -0.77 -0.00    +0.000 C 
DOCKED: BRANCH  16  17
DOCKED: ATOM     17  C   UNL     1      22.919 -18.494  -1.093 -0.82 -0.00    +0.000 C 
DOCKED: ATOM     18  N   UNL     1      21.958 -17.581  -0.558 -0.74 -0.00    +0.000 N 
DOCKED: ATOM     19  O   UNL     1      22.532 -19.529  -1.699 -0.66 -0.00    +0.000 OA
DOCKED: ATOM     20  H   UNL     1      22.264 -16.779  -0.074 -0.05 -0.00    +0.000 HD
DOCKED: BRANCH  18  21
DOCKED: ATOM     21  O   UNL     1      20.632 -17.807  -0.710 -2.31 -0.00    +0.000 OA
DOCKED: ATOM     22  H   UNL     1      20.268 -17.175  -1.349 -0.54 -0.00    +0.000 HD
DOCKED: ENDBRANCH  18  21
DOCKED: ENDBRANCH  16  17
DOCKED: ENDBRANCH  15  16
DOCKED: ENDBRANCH  14  15
DOCKED: ENDBRANCH  13  14
DOCKED: ENDBRANCH  12  13
DOCKED: ENDBRANCH   1  12
DOCKED: TORSDOF 9
DOCKED: TER
DOCKED: ENDMDL
________________________________________________________________________________


	BEGINNING GENETIC ALGORITHM DOCKING 39 of 100
Run: 39 Seed: 1681011852 769498856 [ Run 39 of 100 GA/GALS ]
Beginning LAMARCKIAN GENETIC ALGORITHM (LGA), with a maximum of 2500000 energy evaluations.

Final-Value: -11.892


	FINAL GENETIC ALGORITHM DOCKED STATE
	_______________________________________________


Detailed state:  trans 26.411 -16.711 -2.925 quatxyzw -0.231755 0.971449 -0.042736 0.027375 center 0.056 -0.347 0.144 ntor 9 -152.4224 -23.5811 172.8328 154.6060 -98.3481 179.2489 138.4285 55.3355 -80.7790
State:	 26.411 -16.711  -2.925  -0.232  0.972 -0.043 176.863   -152.42  -23.58  172.83  154.61  -98.35  179.25  138.43   55.34  -80.78

DOCKED: MODEL       39
DOCKED: USER    Run = 39
DOCKED: USER    DPF = ligand_dock.biased.dpf
DOCKED: USER  
DOCKED: USER    Estimated Free Energy of Binding    =   -8.21 kcal/mol  [=(1)+(2)+(3)-(4)]
DOCKED: USER    Estimated Inhibition Constant, Ki   =  961.96 nM (nanomolar)  [Temperature = 298.15 K]
DOCKED: USER    
DOCKED: USER    (1) Final Intermolecular Energy     =  -10.89 kcal/mol
DOCKED: USER        vdW + Hbond + desolv Energy     =  -10.89 kcal/mol
DOCKED: USER        Electrostatic Energy            =   +0.00 kcal/mol
DOCKED: USER    (2) Final Total Internal Energy     =   -1.00 kcal/mol
DOCKED: USER    (3) Torsional Free Energy           =   +2.68 kcal/mol
DOCKED: USER    (4) Unbound System's Energy  [=(2)] =   -1.00 kcal/mol
DOCKED: USER    
DOCKED: USER    
DOCKED: USER    NEWDPF move ligand.pdbqt
DOCKED: USER    NEWDPF about 0.056000 -0.347000 0.144000
DOCKED: USER    NEWDPF tran0 26.410976 -16.711189 -2.924508
DOCKED: USER    NEWDPF quaternion0 -0.231755 0.971449 -0.042736 0.027375
DOCKED: USER    NEWDPF axisangle0 -0.231842 0.971814 -0.042752 176.862710
DOCKED: USER    NEWDPF quat0 -0.231842 0.971814 -0.042752 176.862710
DOCKED: USER    NEWDPF dihe0 -152.42 -23.58 172.83 154.61 -98.35 179.25 138.43 55.34 -80.78 
DOCKED: USER  keepresnum = 1 
DOCKED: USER  
DOCKED: REMARK  Name = 
DOCKED: REMARK  9 active torsions:
DOCKED: REMARK  status: ('A' for Active; 'I' for Inactive)
DOCKED: REMARK    1  A    between atoms: C_2  and  C_10
DOCKED: REMARK    2  A    between atoms: N_3  and  C_4
DOCKED: REMARK    3  A    between atoms: C_10  and  C_11
DOCKED: REMARK    4  A    between atoms: C_11  and  C_12
DOCKED: REMARK    5  A    between atoms: C_12  and  C_13
DOCKED: REMARK    6  A    between atoms: C_13  and  C_14
DOCKED: REMARK    7  A    between atoms: C_14  and  C_15
DOCKED: REMARK    8  A    between atoms: C_15  and  C_16
DOCKED: REMARK    9  A    between atoms: N_17  and  O_18
DOCKED: REMARK                            x       y       z     vdW  Elec       q    Type
DOCKED: REMARK                         _______ _______ _______ _____ _____    ______ ____
DOCKED: USER                              x       y       z     vdW  Elec       q    Type
DOCKED: USER                           _______ _______ _______ _____ _____    ______ ____
DOCKED: ROOT
DOCKED: ATOM      1  C   UNL     1      25.725 -14.363  -3.874 -0.53 -0.00    +0.000 C 
DOCKED: ENDROOT
DOCKED: BRANCH   1   3
DOCKED: ATOM      2  O   UNL     1      27.975 -13.572  -3.884 -0.18 -0.00    +0.000 OA
DOCKED: ATOM      3  C   UNL     1      27.161 -14.441  -4.298 -0.39 -0.00    +0.000 C 
DOCKED: ATOM      4  N   UNL     1      27.597 -15.496  -5.169 -0.43 +0.00    +0.000 N 
DOCKED: ATOM      5  H   UNL     1      26.972 -16.236  -5.348 -0.03 +0.00    +0.000 HD
DOCKED: BRANCH   4   6
DOCKED: ATOM      6  C   UNL     1      28.888 -15.539  -5.797 -0.34 -0.00    +0.000 A 
DOCKED: ATOM      7  C   UNL     1      29.308 -14.526  -6.680 -0.32 -0.00    +0.000 A 
DOCKED: ATOM      8  C   UNL     1      30.563 -14.603  -7.293 -0.22 -0.00    +0.000 A 
DOCKED: ATOM      9  C   UNL     1      31.401 -15.692  -7.043 -0.20 -0.00    +0.000 A 
DOCKED: ATOM     10  C   UNL     1      30.982 -16.714  -6.187 -0.23 -0.00    +0.000 A 
DOCKED: ATOM     11  C   UNL     1      29.729 -16.642  -5.573 -0.30 -0.00    +0.000 A 
DOCKED: ENDBRANCH   4   6
DOCKED: ENDBRANCH   1   3
DOCKED: BRANCH   1  12
DOCKED: ATOM     12  C   UNL     1      25.280 -15.689  -3.249 -0.40 -0.00    +0.000 C 
DOCKED: BRANCH  12  13
DOCKED: ATOM     13  C   UNL     1      25.320 -15.614  -1.716 -0.45 -0.00    +0.000 C 
DOCKED: BRANCH  13  14
DOCKED: ATOM     14  C   UNL     1      26.056 -16.805  -1.085 -0.55 -0.00    +0.000 C 
DOCKED: BRANCH  14  15
DOCKED: ATOM     15  C   UNL     1      25.107 -17.760  -0.340 -0.68 -0.00    +0.000 C 
DOCKED: BRANCH  15  16
DOCKED: ATOM     16  C   UNL     1      24.268 -18.611  -1.302 -0.65 -0.00    +0.000 C 
DOCKED: BRANCH  16  17
DOCKED: ATOM     17  C   UNL     1      22.836 -18.701  -0.859 -0.83 -0.00    +0.000 C 
DOCKED: ATOM     18  N   UNL     1      21.943 -17.604  -1.066 -0.64 -0.00    +0.000 N 
DOCKED: ATOM     19  O   UNL     1      22.414 -19.763  -0.329 -0.70 -0.00    +0.000 OA
DOCKED: ATOM     20  H   UNL     1      22.279 -16.771  -1.470 -0.02 -0.00    +0.000 HD
DOCKED: BRANCH  18  21
DOCKED: ATOM     21  O   UNL     1      20.640 -17.700  -0.711 -2.23 -0.00    +0.000 OA
DOCKED: ATOM     22  H   UNL     1      20.108 -17.115  -1.273 -0.57 -0.00    +0.000 HD
DOCKED: ENDBRANCH  18  21
DOCKED: ENDBRANCH  16  17
DOCKED: ENDBRANCH  15  16
DOCKED: ENDBRANCH  14  15
DOCKED: ENDBRANCH  13  14
DOCKED: ENDBRANCH  12  13
DOCKED: ENDBRANCH   1  12
DOCKED: TORSDOF 9
DOCKED: TER
DOCKED: ENDMDL
________________________________________________________________________________


	BEGINNING GENETIC ALGORITHM DOCKING 40 of 100
Run: 40 Seed: 1831449658 915320554 [ Run 40 of 100 GA/GALS ]
Beginning LAMARCKIAN GENETIC ALGORITHM (LGA), with a maximum of 2500000 energy evaluations.

Final-Value: -12.951


	FINAL GENETIC ALGORITHM DOCKED STATE
	_______________________________________________


Detailed state:  trans 24.777 -14.915 -1.287 quatxyzw 0.183181 -0.534993 0.664482 0.488560 center 0.056 -0.347 0.144 ntor 9 -6.2333 161.2625 -113.4354 -179.7670 15.0689 -178.8807 71.6180 41.8301 114.5863
State:	 24.777 -14.915  -1.287   0.210 -0.613  0.762 121.508     -6.23  161.26 -113.44 -179.77   15.07 -178.88   71.62   41.83  114.59

DOCKED: MODEL       40
DOCKED: USER    Run = 40
DOCKED: USER    DPF = ligand_dock.biased.dpf
DOCKED: USER  
DOCKED: USER    Estimated Free Energy of Binding    =   -8.89 kcal/mol  [=(1)+(2)+(3)-(4)]
DOCKED: USER    Estimated Inhibition Constant, Ki   =  306.24 nM (nanomolar)  [Temperature = 298.15 K]
DOCKED: USER    
DOCKED: USER    (1) Final Intermolecular Energy     =  -11.57 kcal/mol
DOCKED: USER        vdW + Hbond + desolv Energy     =  -11.57 kcal/mol
DOCKED: USER        Electrostatic Energy            =   +0.00 kcal/mol
DOCKED: USER    (2) Final Total Internal Energy     =   -1.38 kcal/mol
DOCKED: USER    (3) Torsional Free Energy           =   +2.68 kcal/mol
DOCKED: USER    (4) Unbound System's Energy  [=(2)] =   -1.38 kcal/mol
DOCKED: USER    
DOCKED: USER    
DOCKED: USER    NEWDPF move ligand.pdbqt
DOCKED: USER    NEWDPF about 0.056000 -0.347000 0.144000
DOCKED: USER    NEWDPF tran0 24.776769 -14.915351 -1.286781
DOCKED: USER    NEWDPF quaternion0 0.183181 -0.534993 0.664482 0.488560
DOCKED: USER    NEWDPF axisangle0 0.209942 -0.613151 0.761558 121.508046
DOCKED: USER    NEWDPF quat0 0.209942 -0.613151 0.761558 121.508046
DOCKED: USER    NEWDPF dihe0 -6.23 161.26 -113.44 -179.77 15.07 -178.88 71.62 41.83 114.59 
DOCKED: USER  keepresnum = 1 
DOCKED: USER  
DOCKED: REMARK  Name = 
DOCKED: REMARK  9 active torsions:
DOCKED: REMARK  status: ('A' for Active; 'I' for Inactive)
DOCKED: REMARK    1  A    between atoms: C_2  and  C_10
DOCKED: REMARK    2  A    between atoms: N_3  and  C_4
DOCKED: REMARK    3  A    between atoms: C_10  and  C_11
DOCKED: REMARK    4  A    between atoms: C_11  and  C_12
DOCKED: REMARK    5  A    between atoms: C_12  and  C_13
DOCKED: REMARK    6  A    between atoms: C_13  and  C_14
DOCKED: REMARK    7  A    between atoms: C_14  and  C_15
DOCKED: REMARK    8  A    between atoms: C_15  and  C_16
DOCKED: REMARK    9  A    between atoms: N_17  and  O_18
DOCKED: REMARK                            x       y       z     vdW  Elec       q    Type
DOCKED: REMARK                         _______ _______ _______ _____ _____    ______ ____
DOCKED: USER                              x       y       z     vdW  Elec       q    Type
DOCKED: USER                           _______ _______ _______ _____ _____    ______ ____
DOCKED: ROOT
DOCKED: ATOM      1  C   UNL     1      26.696 -14.757  -3.070 -0.38 -0.00    +0.000 C 
DOCKED: ENDROOT
DOCKED: BRANCH   1   3
DOCKED: ATOM      2  O   UNL     1      28.437 -13.484  -2.053 -0.11 -0.00    +0.000 OA
DOCKED: ATOM      3  C   UNL     1      27.256 -13.916  -1.963 -0.22 -0.00    +0.000 C 
DOCKED: ATOM      4  N   UNL     1      26.451 -13.614  -0.812 -0.24 -0.00    +0.000 N 
DOCKED: ATOM      5  H   UNL     1      25.493 -13.840  -0.845 -0.02 -0.00    +0.000 HD
DOCKED: BRANCH   4   6
DOCKED: ATOM      6  C   UNL     1      26.958 -13.003   0.386 -0.24 -0.00    +0.000 A 
DOCKED: ATOM      7  C   UNL     1      26.399 -11.817   0.897 -0.29 +0.00    +0.000 A 
DOCKED: ATOM      8  C   UNL     1      26.925 -11.232   2.054 -0.28 +0.00    +0.000 A 
DOCKED: ATOM      9  C   UNL     1      28.018 -11.815   2.700 -0.19 +0.00    +0.000 A 
DOCKED: ATOM     10  C   UNL     1      28.595 -12.978   2.185 -0.17 -0.00    +0.000 A 
DOCKED: ATOM     11  C   UNL     1      28.073 -13.565   1.029 -0.19 -0.00    +0.000 A 
DOCKED: ENDBRANCH   4   6
DOCKED: ENDBRANCH   1   3
DOCKED: BRANCH   1  12
DOCKED: ATOM     12  C   UNL     1      25.393 -15.428  -2.623 -0.51 -0.00    +0.000 C 
DOCKED: BRANCH  12  13
DOCKED: ATOM     13  C   UNL     1      25.655 -16.439  -1.497 -0.56 -0.00    +0.000 C 
DOCKED: BRANCH  13  14
DOCKED: ATOM     14  C   UNL     1      24.748 -17.675  -1.591 -0.67 -0.00    +0.000 C 
DOCKED: BRANCH  14  15
DOCKED: ATOM     15  C   UNL     1      23.665 -17.699  -0.498 -0.75 -0.00    +0.000 C 
DOCKED: BRANCH  15  16
DOCKED: ATOM     16  C   UNL     1      22.882 -19.019  -0.486 -0.78 -0.00    +0.000 C 
DOCKED: BRANCH  16  17
DOCKED: ATOM     17  C   UNL     1      21.462 -18.827  -0.933 -0.84 -0.00    +0.000 C 
DOCKED: ATOM     18  N   UNL     1      20.758 -19.887  -1.583 -0.66 -0.00    +0.000 N 
DOCKED: ATOM     19  O   UNL     1      20.880 -17.732  -0.707 -2.18 -0.00    +0.000 OA
DOCKED: ATOM     20  H   UNL     1      21.219 -20.738  -1.769 -0.23 -0.00    +0.000 HD
DOCKED: BRANCH  18  21
DOCKED: ATOM     21  O   UNL     1      19.462 -19.734  -1.945 -1.50 -0.00    +0.000 OA
DOCKED: ATOM     22  H   UNL     1      19.130 -18.888  -1.608 -0.55 -0.00    +0.000 HD
DOCKED: ENDBRANCH  18  21
DOCKED: ENDBRANCH  16  17
DOCKED: ENDBRANCH  15  16
DOCKED: ENDBRANCH  14  15
DOCKED: ENDBRANCH  13  14
DOCKED: ENDBRANCH  12  13
DOCKED: ENDBRANCH   1  12
DOCKED: TORSDOF 9
DOCKED: TER
DOCKED: ENDMDL
________________________________________________________________________________


	BEGINNING GENETIC ALGORITHM DOCKING 41 of 100
Run: 41 Seed: 33502970 204575838 [ Run 41 of 100 GA/GALS ]
Beginning LAMARCKIAN GENETIC ALGORITHM (LGA), with a maximum of 2500000 energy evaluations.

Final-Value: -13.131


	FINAL GENETIC ALGORITHM DOCKED STATE
	_______________________________________________


Detailed state:  trans 24.502 -17.598 0.090 quatxyzw 0.246194 -0.267563 0.668256 0.649024 center 0.056 -0.347 0.144 ntor 9 -9.1064 178.5308 164.2217 -179.9373 -179.9924 -154.2321 -165.4022 108.5806 -87.2970
State:	 24.502 -17.598   0.090   0.324 -0.352  0.878 99.064     -9.11  178.53  164.22 -179.94 -179.99 -154.23 -165.40  108.58  -87.30

DOCKED: MODEL       41
DOCKED: USER    Run = 41
DOCKED: USER    DPF = ligand_dock.biased.dpf
DOCKED: USER  
DOCKED: USER    Estimated Free Energy of Binding    =   -9.04 kcal/mol  [=(1)+(2)+(3)-(4)]
DOCKED: USER    Estimated Inhibition Constant, Ki   =  236.91 nM (nanomolar)  [Temperature = 298.15 K]
DOCKED: USER    
DOCKED: USER    (1) Final Intermolecular Energy     =  -11.72 kcal/mol
DOCKED: USER        vdW + Hbond + desolv Energy     =  -11.72 kcal/mol
DOCKED: USER        Electrostatic Energy            =   +0.00 kcal/mol
DOCKED: USER    (2) Final Total Internal Energy     =   -1.41 kcal/mol
DOCKED: USER    (3) Torsional Free Energy           =   +2.68 kcal/mol
DOCKED: USER    (4) Unbound System's Energy  [=(2)] =   -1.41 kcal/mol
DOCKED: USER    
DOCKED: USER    
DOCKED: USER    NEWDPF move ligand.pdbqt
DOCKED: USER    NEWDPF about 0.056000 -0.347000 0.144000
DOCKED: USER    NEWDPF tran0 24.501838 -17.598175 0.089910
DOCKED: USER    NEWDPF quaternion0 0.246194 -0.267563 0.668256 0.649024
DOCKED: USER    NEWDPF axisangle0 0.323612 -0.351701 0.878397 99.063898
DOCKED: USER    NEWDPF quat0 0.323612 -0.351701 0.878397 99.063898
DOCKED: USER    NEWDPF dihe0 -9.11 178.53 164.22 -179.94 -179.99 -154.23 -165.40 108.58 -87.30 
DOCKED: USER  keepresnum = 1 
DOCKED: USER  
DOCKED: REMARK  Name = 
DOCKED: REMARK  9 active torsions:
DOCKED: REMARK  status: ('A' for Active; 'I' for Inactive)
DOCKED: REMARK    1  A    between atoms: C_2  and  C_10
DOCKED: REMARK    2  A    between atoms: N_3  and  C_4
DOCKED: REMARK    3  A    between atoms: C_10  and  C_11
DOCKED: REMARK    4  A    between atoms: C_11  and  C_12
DOCKED: REMARK    5  A    between atoms: C_12  and  C_13
DOCKED: REMARK    6  A    between atoms: C_13  and  C_14
DOCKED: REMARK    7  A    between atoms: C_14  and  C_15
DOCKED: REMARK    8  A    between atoms: C_15  and  C_16
DOCKED: REMARK    9  A    between atoms: N_17  and  O_18
DOCKED: REMARK                            x       y       z     vdW  Elec       q    Type
DOCKED: REMARK                         _______ _______ _______ _____ _____    ______ ____
DOCKED: USER                              x       y       z     vdW  Elec       q    Type
DOCKED: USER                           _______ _______ _______ _____ _____    ______ ____
DOCKED: ROOT
DOCKED: ATOM      1  C   UNL     1      26.836 -17.152  -1.023 -0.51 -0.00    +0.000 C 
DOCKED: ENDROOT
DOCKED: BRANCH   1   3
DOCKED: ATOM      2  O   UNL     1      25.671 -15.126  -0.554 -0.43 -0.00    +0.000 OA
DOCKED: ATOM      3  C   UNL     1      26.633 -15.883  -0.253 -0.38 -0.00    +0.000 C 
DOCKED: ATOM      4  N   UNL     1      27.530 -15.537   0.814 -0.28 -0.00    +0.000 N 
DOCKED: ATOM      5  H   UNL     1      28.173 -16.219   1.117 -0.61 -0.00    +0.000 HD
DOCKED: BRANCH   4   6
DOCKED: ATOM      6  C   UNL     1      27.549 -14.257   1.466 -0.24 -0.00    +0.000 A 
DOCKED: ATOM      7  C   UNL     1      27.764 -14.143   2.853 -0.34 -0.00    +0.000 A 
DOCKED: ATOM      8  C   UNL     1      27.758 -12.886   3.465 -0.32 -0.00    +0.000 A 
DOCKED: ATOM      9  C   UNL     1      27.523 -11.737   2.706 -0.24 +0.00    +0.000 A 
DOCKED: ATOM     10  C   UNL     1      27.284 -11.843   1.334 -0.22 +0.00    +0.000 A 
DOCKED: ATOM     11  C   UNL     1      27.289 -13.097   0.718 -0.23 -0.00    +0.000 A 
DOCKED: ENDBRANCH   4   6
DOCKED: ENDBRANCH   1   3
DOCKED: BRANCH   1  12
DOCKED: ATOM     12  C   UNL     1      25.722 -18.154  -0.703 -0.66 -0.00    +0.000 C 
DOCKED: BRANCH  12  13
DOCKED: ATOM     13  C   UNL     1      24.564 -18.025  -1.704 -0.58 -0.00    +0.000 C 
DOCKED: BRANCH  13  14
DOCKED: ATOM     14  C   UNL     1      23.664 -16.815  -1.411 -0.47 -0.00    +0.000 C 
DOCKED: BRANCH  14  15
DOCKED: ATOM     15  C   UNL     1      22.603 -17.111  -0.336 -0.65 -0.00    +0.000 C 
DOCKED: BRANCH  15  16
DOCKED: ATOM     16  C   UNL     1      22.572 -18.594   0.054 -0.76 -0.00    +0.000 C 
DOCKED: BRANCH  16  17
DOCKED: ATOM     17  C   UNL     1      21.307 -19.263  -0.401 -0.84 -0.00    +0.000 C 
DOCKED: ATOM     18  N   UNL     1      21.055 -19.465  -1.793 -0.68 -0.00    +0.000 N 
DOCKED: ATOM     19  O   UNL     1      20.478 -19.673   0.454 -0.85 -0.00    +0.000 OA
DOCKED: ATOM     20  H   UNL     1      21.700 -19.132  -2.460 -0.04 -0.00    +0.000 HD
DOCKED: BRANCH  18  21
DOCKED: ATOM     21  O   UNL     1      19.938 -20.109  -2.206 -1.79 -0.00    +0.000 OA
DOCKED: ATOM     22  H   UNL     1      19.486 -20.494  -1.439 -0.62 -0.00    +0.000 HD
DOCKED: ENDBRANCH  18  21
DOCKED: ENDBRANCH  16  17
DOCKED: ENDBRANCH  15  16
DOCKED: ENDBRANCH  14  15
DOCKED: ENDBRANCH  13  14
DOCKED: ENDBRANCH  12  13
DOCKED: ENDBRANCH   1  12
DOCKED: TORSDOF 9
DOCKED: TER
DOCKED: ENDMDL
________________________________________________________________________________


	BEGINNING GENETIC ALGORITHM DOCKING 42 of 100
Run: 42 Seed: 1668918337 1665890976 [ Run 42 of 100 GA/GALS ]
Beginning LAMARCKIAN GENETIC ALGORITHM (LGA), with a maximum of 2500000 energy evaluations.

Final-Value: -13.491


	FINAL GENETIC ALGORITHM DOCKED STATE
	_______________________________________________


Detailed state:  trans 26.568 -17.543 -2.321 quatxyzw 0.293460 -0.947698 0.097673 -0.078800 center 0.056 -0.347 0.144 ntor 9 14.3816 -85.9907 -46.3437 172.4927 -150.2395 -171.0377 -148.4875 39.2331 -36.1045
State:	 26.568 -17.543  -2.321   0.294 -0.951  0.098 -170.961     14.38  -85.99  -46.34  172.49 -150.24 -171.04 -148.49   39.23  -36.10

DOCKED: MODEL       42
DOCKED: USER    Run = 42
DOCKED: USER    DPF = ligand_dock.biased.dpf
DOCKED: USER  
DOCKED: USER    Estimated Free Energy of Binding    =   -9.51 kcal/mol  [=(1)+(2)+(3)-(4)]
DOCKED: USER    Estimated Inhibition Constant, Ki   =  106.39 nM (nanomolar)  [Temperature = 298.15 K]
DOCKED: USER    
DOCKED: USER    (1) Final Intermolecular Energy     =  -12.20 kcal/mol
DOCKED: USER        vdW + Hbond + desolv Energy     =  -12.20 kcal/mol
DOCKED: USER        Electrostatic Energy            =   +0.00 kcal/mol
DOCKED: USER    (2) Final Total Internal Energy     =   -1.29 kcal/mol
DOCKED: USER    (3) Torsional Free Energy           =   +2.68 kcal/mol
DOCKED: USER    (4) Unbound System's Energy  [=(2)] =   -1.29 kcal/mol
DOCKED: USER    
DOCKED: USER    
DOCKED: USER    NEWDPF move ligand.pdbqt
DOCKED: USER    NEWDPF about 0.056000 -0.347000 0.144000
DOCKED: USER    NEWDPF tran0 26.568227 -17.543069 -2.320994
DOCKED: USER    NEWDPF quaternion0 0.293460 -0.947698 0.097673 -0.078800
DOCKED: USER    NEWDPF axisangle0 0.294375 -0.950654 0.097978 -170.960814
DOCKED: USER    NEWDPF quat0 0.294375 -0.950654 0.097978 -170.960814
DOCKED: USER    NEWDPF dihe0 14.38 -85.99 -46.34 172.49 -150.24 -171.04 -148.49 39.23 -36.10 
DOCKED: USER  keepresnum = 1 
DOCKED: USER  
DOCKED: REMARK  Name = 
DOCKED: REMARK  9 active torsions:
DOCKED: REMARK  status: ('A' for Active; 'I' for Inactive)
DOCKED: REMARK    1  A    between atoms: C_2  and  C_10
DOCKED: REMARK    2  A    between atoms: N_3  and  C_4
DOCKED: REMARK    3  A    between atoms: C_10  and  C_11
DOCKED: REMARK    4  A    between atoms: C_11  and  C_12
DOCKED: REMARK    5  A    between atoms: C_12  and  C_13
DOCKED: REMARK    6  A    between atoms: C_13  and  C_14
DOCKED: REMARK    7  A    between atoms: C_14  and  C_15
DOCKED: REMARK    8  A    between atoms: C_15  and  C_16
DOCKED: REMARK    9  A    between atoms: N_17  and  O_18
DOCKED: REMARK                            x       y       z     vdW  Elec       q    Type
DOCKED: REMARK                         _______ _______ _______ _____ _____    ______ ____
DOCKED: USER                              x       y       z     vdW  Elec       q    Type
DOCKED: USER                           _______ _______ _______ _____ _____    ______ ____
DOCKED: ROOT
DOCKED: ATOM      1  C   UNL     1      25.507 -15.446  -3.488 -0.56 -0.00    +0.000 C 
DOCKED: ENDROOT
DOCKED: BRANCH   1   3
DOCKED: ATOM      2  O   UNL     1      27.875 -15.546  -3.232 -0.30 -0.00    +0.000 OA
DOCKED: ATOM      3  C   UNL     1      26.906 -15.402  -4.025 -0.45 -0.00    +0.000 C 
DOCKED: ATOM      4  N   UNL     1      27.132 -15.195  -5.428 -0.47 +0.00    +0.000 N 
DOCKED: ATOM      5  H   UNL     1      26.355 -15.237  -6.033 -0.05 +0.00    +0.000 HD
DOCKED: BRANCH   4   6
DOCKED: ATOM      6  C   UNL     1      28.420 -14.928  -6.004 -0.36 -0.00    +0.000 A 
DOCKED: ATOM      7  C   UNL     1      28.657 -13.769  -6.768 -0.29 -0.00    +0.000 A 
DOCKED: ATOM      8  C   UNL     1      29.916 -13.544  -7.334 -0.22 -0.00    +0.000 A 
DOCKED: ATOM      9  C   UNL     1      30.942 -14.475  -7.157 -0.19 -0.00    +0.000 A 
DOCKED: ATOM     10  C   UNL     1      30.709 -15.639  -6.421 -0.23 -0.00    +0.000 A 
DOCKED: ATOM     11  C   UNL     1      29.452 -15.869  -5.854 -0.32 -0.00    +0.000 A 
DOCKED: ENDBRANCH   4   6
DOCKED: ENDBRANCH   1   3
DOCKED: BRANCH   1  12
DOCKED: ATOM     12  C   UNL     1      25.290 -16.721  -2.667 -0.47 -0.00    +0.000 C 
DOCKED: BRANCH  12  13
DOCKED: ATOM     13  C   UNL     1      24.381 -16.449  -1.460 -0.52 -0.00    +0.000 C 
DOCKED: BRANCH  13  14
DOCKED: ATOM     14  C   UNL     1      24.743 -17.311  -0.242 -0.45 -0.00    +0.000 C 
DOCKED: BRANCH  14  15
DOCKED: ATOM     15  C   UNL     1      23.816 -18.530  -0.082 -0.67 -0.00    +0.000 C 
DOCKED: BRANCH  15  16
DOCKED: ATOM     16  C   UNL     1      23.131 -18.914  -1.400 -0.78 -0.00    +0.000 C 
DOCKED: BRANCH  16  17
DOCKED: ATOM     17  C   UNL     1      21.636 -18.821  -1.297 -0.66 -0.00    +0.000 C 
DOCKED: ATOM     18  N   UNL     1      20.804 -19.783  -1.949 -0.63 -0.00    +0.000 N 
DOCKED: ATOM     19  O   UNL     1      21.116 -17.905  -0.606 -2.00 -0.00    +0.000 OA
DOCKED: ATOM     20  H   UNL     1      21.213 -20.491  -2.498 -0.52 -0.00    +0.000 HD
DOCKED: BRANCH  18  21
DOCKED: ATOM     21  O   UNL     1      19.457 -19.730  -1.820 -1.56 -0.00    +0.000 OA
DOCKED: ATOM     22  H   UNL     1      19.202 -18.869  -1.452 -0.51 -0.00    +0.000 HD
DOCKED: ENDBRANCH  18  21
DOCKED: ENDBRANCH  16  17
DOCKED: ENDBRANCH  15  16
DOCKED: ENDBRANCH  14  15
DOCKED: ENDBRANCH  13  14
DOCKED: ENDBRANCH  12  13
DOCKED: ENDBRANCH   1  12
DOCKED: TORSDOF 9
DOCKED: TER
DOCKED: ENDMDL
________________________________________________________________________________


	BEGINNING GENETIC ALGORITHM DOCKING 43 of 100
Run: 43 Seed: 385661781 1294045442 [ Run 43 of 100 GA/GALS ]
Beginning LAMARCKIAN GENETIC ALGORITHM (LGA), with a maximum of 2500000 energy evaluations.

Final-Value: -13.199


	FINAL GENETIC ALGORITHM DOCKED STATE
	_______________________________________________


Detailed state:  trans 25.407 -14.949 -2.102 quatxyzw 0.163066 0.161028 -0.864202 -0.447921 center 0.056 -0.347 0.144 ntor 9 9.0849 -56.5537 -138.7016 45.9192 21.0283 -140.3799 -150.0031 99.1698 140.8386
State:	 25.407 -14.949  -2.102   0.182  0.180 -0.967 -126.779      9.08  -56.55 -138.70   45.92   21.03 -140.38 -150.00   99.17  140.84

DOCKED: MODEL       43
DOCKED: USER    Run = 43
DOCKED: USER    DPF = ligand_dock.biased.dpf
DOCKED: USER  
DOCKED: USER    Estimated Free Energy of Binding    =   -9.09 kcal/mol  [=(1)+(2)+(3)-(4)]
DOCKED: USER    Estimated Inhibition Constant, Ki   =  215.54 nM (nanomolar)  [Temperature = 298.15 K]
DOCKED: USER    
DOCKED: USER    (1) Final Intermolecular Energy     =  -11.78 kcal/mol
DOCKED: USER        vdW + Hbond + desolv Energy     =  -11.78 kcal/mol
DOCKED: USER        Electrostatic Energy            =   +0.00 kcal/mol
DOCKED: USER    (2) Final Total Internal Energy     =   -1.42 kcal/mol
DOCKED: USER    (3) Torsional Free Energy           =   +2.68 kcal/mol
DOCKED: USER    (4) Unbound System's Energy  [=(2)] =   -1.42 kcal/mol
DOCKED: USER    
DOCKED: USER    
DOCKED: USER    NEWDPF move ligand.pdbqt
DOCKED: USER    NEWDPF about 0.056000 -0.347000 0.144000
DOCKED: USER    NEWDPF tran0 25.406858 -14.949312 -2.102169
DOCKED: USER    NEWDPF quaternion0 0.163066 0.161028 -0.864202 -0.447921
DOCKED: USER    NEWDPF axisangle0 0.182386 0.180107 -0.966590 -126.779204
DOCKED: USER    NEWDPF quat0 0.182386 0.180107 -0.966590 -126.779204
DOCKED: USER    NEWDPF dihe0 9.08 -56.55 -138.70 45.92 21.03 -140.38 -150.00 99.17 140.84 
DOCKED: USER  keepresnum = 1 
DOCKED: USER  
DOCKED: REMARK  Name = 
DOCKED: REMARK  9 active torsions:
DOCKED: REMARK  status: ('A' for Active; 'I' for Inactive)
DOCKED: REMARK    1  A    between atoms: C_2  and  C_10
DOCKED: REMARK    2  A    between atoms: N_3  and  C_4
DOCKED: REMARK    3  A    between atoms: C_10  and  C_11
DOCKED: REMARK    4  A    between atoms: C_11  and  C_12
DOCKED: REMARK    5  A    between atoms: C_12  and  C_13
DOCKED: REMARK    6  A    between atoms: C_13  and  C_14
DOCKED: REMARK    7  A    between atoms: C_14  and  C_15
DOCKED: REMARK    8  A    between atoms: C_15  and  C_16
DOCKED: REMARK    9  A    between atoms: N_17  and  O_18
DOCKED: REMARK                            x       y       z     vdW  Elec       q    Type
DOCKED: REMARK                         _______ _______ _______ _____ _____    ______ ____
DOCKED: USER                              x       y       z     vdW  Elec       q    Type
DOCKED: USER                           _______ _______ _______ _____ _____    ______ ____
DOCKED: ROOT
DOCKED: ATOM      1  C   UNL     1      27.621 -16.245  -1.546 -0.35 -0.00    +0.000 C 
DOCKED: ENDROOT
DOCKED: BRANCH   1   3
DOCKED: ATOM      2  O   UNL     1      27.489 -13.933  -0.977 -0.20 -0.00    +0.000 OA
DOCKED: ATOM      3  C   UNL     1      27.693 -15.109  -0.570 -0.28 -0.00    +0.000 C 
DOCKED: ATOM      4  N   UNL     1      27.997 -15.364   0.810 -0.24 -0.00    +0.000 N 
DOCKED: ATOM      5  H   UNL     1      28.001 -16.301   1.117 -0.55 -0.00    +0.000 HD
DOCKED: BRANCH   4   6
DOCKED: ATOM      6  C   UNL     1      28.296 -14.339   1.771 -0.22 -0.00    +0.000 A 
DOCKED: ATOM      7  C   UNL     1      29.622 -13.951   2.040 -0.15 -0.00    +0.000 A 
DOCKED: ATOM      8  C   UNL     1      29.887 -12.963   2.995 -0.12 -0.00    +0.000 A 
DOCKED: ATOM      9  C   UNL     1      28.836 -12.368   3.698 -0.18 -0.00    +0.000 A 
DOCKED: ATOM     10  C   UNL     1      27.519 -12.765   3.454 -0.30 -0.00    +0.000 A 
DOCKED: ATOM     11  C   UNL     1      27.251 -13.751   2.501 -0.28 -0.00    +0.000 A 
DOCKED: ENDBRANCH   4   6
DOCKED: ENDBRANCH   1   3
DOCKED: BRANCH   1  12
DOCKED: ATOM     12  C   UNL     1      26.277 -16.230  -2.282 -0.48 -0.00    +0.000 C 
DOCKED: BRANCH  12  13
DOCKED: ATOM     13  C   UNL     1      25.133 -15.858  -1.327 -0.46 -0.00    +0.000 C 
DOCKED: BRANCH  13  14
DOCKED: ATOM     14  C   UNL     1      24.558 -17.077  -0.591 -0.60 -0.00    +0.000 C 
DOCKED: BRANCH  14  15
DOCKED: ATOM     15  C   UNL     1      23.782 -18.022  -1.526 -0.73 -0.00    +0.000 C 
DOCKED: BRANCH  15  16
DOCKED: ATOM     16  C   UNL     1      22.944 -19.046  -0.750 -0.81 -0.00    +0.000 C 
DOCKED: BRANCH  16  17
DOCKED: ATOM     17  C   UNL     1      21.473 -18.837  -0.964 -0.84 -0.00    +0.000 C 
DOCKED: ATOM     18  N   UNL     1      20.648 -19.909  -1.427 -0.74 -0.00    +0.000 N 
DOCKED: ATOM     19  O   UNL     1      20.959 -17.716  -0.706 -2.15 -0.00    +0.000 OA
DOCKED: ATOM     20  H   UNL     1      21.055 -20.781  -1.639 -0.21 -0.00    +0.000 HD
DOCKED: BRANCH  18  21
DOCKED: ATOM     21  O   UNL     1      19.313 -19.738  -1.576 -1.32 -0.00    +0.000 OA
DOCKED: ATOM     22  H   UNL     1      19.094 -18.800  -1.468 -0.57 -0.00    +0.000 HD
DOCKED: ENDBRANCH  18  21
DOCKED: ENDBRANCH  16  17
DOCKED: ENDBRANCH  15  16
DOCKED: ENDBRANCH  14  15
DOCKED: ENDBRANCH  13  14
DOCKED: ENDBRANCH  12  13
DOCKED: ENDBRANCH   1  12
DOCKED: TORSDOF 9
DOCKED: TER
DOCKED: ENDMDL
________________________________________________________________________________


	BEGINNING GENETIC ALGORITHM DOCKING 44 of 100
Run: 44 Seed: 1572205715 336302024 [ Run 44 of 100 GA/GALS ]
Beginning LAMARCKIAN GENETIC ALGORITHM (LGA), with a maximum of 2500000 energy evaluations.

Final-Value: -13.628


	FINAL GENETIC ALGORITHM DOCKED STATE
	_______________________________________________


Detailed state:  trans 25.117 -17.505 -4.053 quatxyzw 0.114792 0.849307 0.469840 0.211544 center 0.056 -0.347 0.144 ntor 9 34.9837 118.1252 -43.0738 -177.2934 -164.7675 -163.5453 -55.1498 99.3942 7.3370
State:	 25.117 -17.505  -4.053   0.117  0.869  0.481 155.574     34.98  118.13  -43.07 -177.29 -164.77 -163.55  -55.15   99.39    7.34

DOCKED: MODEL       44
DOCKED: USER    Run = 44
DOCKED: USER    DPF = ligand_dock.biased.dpf
DOCKED: USER  
DOCKED: USER    Estimated Free Energy of Binding    =   -9.78 kcal/mol  [=(1)+(2)+(3)-(4)]
DOCKED: USER    Estimated Inhibition Constant, Ki   =   68.00 nM (nanomolar)  [Temperature = 298.15 K]
DOCKED: USER    
DOCKED: USER    (1) Final Intermolecular Energy     =  -12.46 kcal/mol
DOCKED: USER        vdW + Hbond + desolv Energy     =  -12.46 kcal/mol
DOCKED: USER        Electrostatic Energy            =   +0.00 kcal/mol
DOCKED: USER    (2) Final Total Internal Energy     =   -1.16 kcal/mol
DOCKED: USER    (3) Torsional Free Energy           =   +2.68 kcal/mol
DOCKED: USER    (4) Unbound System's Energy  [=(2)] =   -1.16 kcal/mol
DOCKED: USER    
DOCKED: USER    
DOCKED: USER    NEWDPF move ligand.pdbqt
DOCKED: USER    NEWDPF about 0.056000 -0.347000 0.144000
DOCKED: USER    NEWDPF tran0 25.116508 -17.504982 -4.052870
DOCKED: USER    NEWDPF quaternion0 0.114792 0.849307 0.469840 0.211544
DOCKED: USER    NEWDPF axisangle0 0.117451 0.868973 0.480719 155.574323
DOCKED: USER    NEWDPF quat0 0.117451 0.868973 0.480719 155.574323
DOCKED: USER    NEWDPF dihe0 34.98 118.13 -43.07 -177.29 -164.77 -163.55 -55.15 99.39 7.34 
DOCKED: USER  keepresnum = 1 
DOCKED: USER  
DOCKED: REMARK  Name = 
DOCKED: REMARK  9 active torsions:
DOCKED: REMARK  status: ('A' for Active; 'I' for Inactive)
DOCKED: REMARK    1  A    between atoms: C_2  and  C_10
DOCKED: REMARK    2  A    between atoms: N_3  and  C_4
DOCKED: REMARK    3  A    between atoms: C_10  and  C_11
DOCKED: REMARK    4  A    between atoms: C_11  and  C_12
DOCKED: REMARK    5  A    between atoms: C_12  and  C_13
DOCKED: REMARK    6  A    between atoms: C_13  and  C_14
DOCKED: REMARK    7  A    between atoms: C_14  and  C_15
DOCKED: REMARK    8  A    between atoms: C_15  and  C_16
DOCKED: REMARK    9  A    between atoms: N_17  and  O_18
DOCKED: REMARK                            x       y       z     vdW  Elec       q    Type
DOCKED: REMARK                         _______ _______ _______ _____ _____    ______ ____
DOCKED: USER                              x       y       z     vdW  Elec       q    Type
DOCKED: USER                           _______ _______ _______ _____ _____    ______ ____
DOCKED: ROOT
DOCKED: ATOM      1  C   UNL     1      26.351 -15.562  -2.792 -0.47 -0.00    +0.000 C 
DOCKED: ENDROOT
DOCKED: BRANCH   1   3
DOCKED: ATOM      2  O   UNL     1      26.476 -15.656  -5.172 -1.14 +0.00    +0.000 OA
DOCKED: ATOM      3  C   UNL     1      27.111 -15.602  -4.084 -0.40 -0.00    +0.000 C 
DOCKED: ATOM      4  N   UNL     1      28.547 -15.583  -4.074 -0.27 -0.00    +0.000 N 
DOCKED: ATOM      5  H   UNL     1      29.001 -15.390  -3.222 +0.00 -0.00    +0.000 HD
DOCKED: BRANCH   4   6
DOCKED: ATOM      6  C   UNL     1      29.362 -15.829  -5.231 -0.29 -0.00    +0.000 A 
DOCKED: ATOM      7  C   UNL     1      29.614 -14.819  -6.180 -0.28 -0.00    +0.000 A 
DOCKED: ATOM      8  C   UNL     1      30.395 -15.092  -7.308 -0.25 -0.00    +0.000 A 
DOCKED: ATOM      9  C   UNL     1      30.917 -16.372  -7.507 -0.27 -0.00    +0.000 A 
DOCKED: ATOM     10  C   UNL     1      30.651 -17.387  -6.584 -0.31 -0.00    +0.000 A 
DOCKED: ATOM     11  C   UNL     1      29.871 -17.119  -5.456 -0.28 -0.00    +0.000 A 
DOCKED: ENDBRANCH   4   6
DOCKED: ENDBRANCH   1   3
DOCKED: BRANCH   1  12
DOCKED: ATOM     12  C   UNL     1      25.154 -16.516  -2.849 -0.37 -0.00    +0.000 C 
DOCKED: BRANCH  12  13
DOCKED: ATOM     13  C   UNL     1      24.267 -16.359  -1.604 -0.38 -0.00    +0.000 C 
DOCKED: BRANCH  13  14
DOCKED: ATOM     14  C   UNL     1      24.736 -17.233  -0.431 -0.58 -0.00    +0.000 C 
DOCKED: BRANCH  14  15
DOCKED: ATOM     15  C   UNL     1      24.040 -18.605  -0.399 -0.74 -0.00    +0.000 C 
DOCKED: BRANCH  15  16
DOCKED: ATOM     16  C   UNL     1      23.181 -18.849  -1.647 -0.69 -0.00    +0.000 C 
DOCKED: BRANCH  16  17
DOCKED: ATOM     17  C   UNL     1      21.715 -18.799  -1.331 -0.63 -0.00    +0.000 C 
DOCKED: ATOM     18  N   UNL     1      20.815 -19.742  -1.918 -0.69 -0.00    +0.000 N 
DOCKED: ATOM     19  O   UNL     1      21.281 -17.938  -0.519 -1.82 -0.00    +0.000 OA
DOCKED: ATOM     20  H   UNL     1      21.155 -20.406  -2.561 -0.52 -0.00    +0.000 HD
DOCKED: BRANCH  18  21
DOCKED: ATOM     21  O   UNL     1      19.499 -19.730  -1.599 -1.59 -0.00    +0.000 OA
DOCKED: ATOM     22  H   UNL     1      19.210 -18.816  -1.455 -0.50 -0.00    +0.000 HD
DOCKED: ENDBRANCH  18  21
DOCKED: ENDBRANCH  16  17
DOCKED: ENDBRANCH  15  16
DOCKED: ENDBRANCH  14  15
DOCKED: ENDBRANCH  13  14
DOCKED: ENDBRANCH  12  13
DOCKED: ENDBRANCH   1  12
DOCKED: TORSDOF 9
DOCKED: TER
DOCKED: ENDMDL
________________________________________________________________________________


	BEGINNING GENETIC ALGORITHM DOCKING 45 of 100
Run: 45 Seed: 284139409 653540541 [ Run 45 of 100 GA/GALS ]
Beginning LAMARCKIAN GENETIC ALGORITHM (LGA), with a maximum of 2500000 energy evaluations.

Final-Value: -13.684


	FINAL GENETIC ALGORITHM DOCKED STATE
	_______________________________________________


Detailed state:  trans 25.178 -14.558 0.695 quatxyzw -0.019759 -0.358266 0.763303 0.537237 center 0.056 -0.347 0.144 ntor 9 6.9692 -88.2322 -178.4012 106.3218 152.9202 -169.0816 -163.4322 77.8018 46.5823
State:	 25.178 -14.558   0.695  -0.023 -0.425  0.905 115.008      6.97  -88.23 -178.40  106.32  152.92 -169.08 -163.43   77.80   46.58

DOCKED: MODEL       45
DOCKED: USER    Run = 45
DOCKED: USER    DPF = ligand_dock.biased.dpf
DOCKED: USER  
DOCKED: USER    Estimated Free Energy of Binding    =   -9.75 kcal/mol  [=(1)+(2)+(3)-(4)]
DOCKED: USER    Estimated Inhibition Constant, Ki   =   71.66 nM (nanomolar)  [Temperature = 298.15 K]
DOCKED: USER    
DOCKED: USER    (1) Final Intermolecular Energy     =  -12.43 kcal/mol
DOCKED: USER        vdW + Hbond + desolv Energy     =  -12.43 kcal/mol
DOCKED: USER        Electrostatic Energy            =   +0.00 kcal/mol
DOCKED: USER    (2) Final Total Internal Energy     =   -1.25 kcal/mol
DOCKED: USER    (3) Torsional Free Energy           =   +2.68 kcal/mol
DOCKED: USER    (4) Unbound System's Energy  [=(2)] =   -1.25 kcal/mol
DOCKED: USER    
DOCKED: USER    
DOCKED: USER    NEWDPF move ligand.pdbqt
DOCKED: USER    NEWDPF about 0.056000 -0.347000 0.144000
DOCKED: USER    NEWDPF tran0 25.178329 -14.557873 0.694693
DOCKED: USER    NEWDPF quaternion0 -0.019759 -0.358266 0.763303 0.537237
DOCKED: USER    NEWDPF axisangle0 -0.023427 -0.424772 0.904997 115.008495
DOCKED: USER    NEWDPF quat0 -0.023427 -0.424772 0.904997 115.008495
DOCKED: USER    NEWDPF dihe0 6.97 -88.23 -178.40 106.32 152.92 -169.08 -163.43 77.80 46.58 
DOCKED: USER  keepresnum = 1 
DOCKED: USER  
DOCKED: REMARK  Name = 
DOCKED: REMARK  9 active torsions:
DOCKED: REMARK  status: ('A' for Active; 'I' for Inactive)
DOCKED: REMARK    1  A    between atoms: C_2  and  C_10
DOCKED: REMARK    2  A    between atoms: N_3  and  C_4
DOCKED: REMARK    3  A    between atoms: C_10  and  C_11
DOCKED: REMARK    4  A    between atoms: C_11  and  C_12
DOCKED: REMARK    5  A    between atoms: C_12  and  C_13
DOCKED: REMARK    6  A    between atoms: C_13  and  C_14
DOCKED: REMARK    7  A    between atoms: C_14  and  C_15
DOCKED: REMARK    8  A    between atoms: C_15  and  C_16
DOCKED: REMARK    9  A    between atoms: N_17  and  O_18
DOCKED: REMARK                            x       y       z     vdW  Elec       q    Type
DOCKED: REMARK                         _______ _______ _______ _____ _____    ______ ____
DOCKED: USER                              x       y       z     vdW  Elec       q    Type
DOCKED: USER                           _______ _______ _______ _____ _____    ______ ____
DOCKED: ROOT
DOCKED: ATOM      1  C   UNL     1      27.714 -14.978   0.162 -0.28 -0.00    +0.000 C 
DOCKED: ENDROOT
DOCKED: BRANCH   1   3
DOCKED: ATOM      2  O   UNL     1      27.331 -12.890   1.248 -0.26 -0.00    +0.000 OA
DOCKED: ATOM      3  C   UNL     1      27.811 -14.053   1.337 -0.28 -0.00    +0.000 C 
DOCKED: ATOM      4  N   UNL     1      28.450 -14.490   2.547 -0.28 -0.00    +0.000 N 
DOCKED: ATOM      5  H   UNL     1      28.677 -15.445   2.630 -1.73 -0.00    +0.000 HD
DOCKED: BRANCH   4   6
DOCKED: ATOM      6  C   UNL     1      28.780 -13.621   3.642 -0.30 -0.00    +0.000 A 
DOCKED: ATOM      7  C   UNL     1      30.093 -13.541   4.145 -0.22 -0.00    +0.000 A 
DOCKED: ATOM      8  C   UNL     1      30.383 -12.701   5.225 -0.17 -0.00    +0.000 A 
DOCKED: ATOM      9  C   UNL     1      29.368 -11.947   5.820 -0.23 -0.00    +0.000 A 
DOCKED: ATOM     10  C   UNL     1      28.058 -12.040   5.343 -0.37 +0.00    +0.000 A 
DOCKED: ATOM     11  C   UNL     1      27.764 -12.878   4.264 -0.37 -0.00    +0.000 A 
DOCKED: ENDBRANCH   4   6
DOCKED: ENDBRANCH   1   3
DOCKED: BRANCH   1  12
DOCKED: ATOM     12  C   UNL     1      26.254 -15.371  -0.087 -0.13 -0.00    +0.000 C 
DOCKED: BRANCH  12  13
DOCKED: ATOM     13  C   UNL     1      26.124 -16.884  -0.313 -0.50 -0.00    +0.000 C 
DOCKED: BRANCH  13  14
DOCKED: ATOM     14  C   UNL     1      25.811 -17.239  -1.774 -0.53 -0.00    +0.000 C 
DOCKED: BRANCH  14  15
DOCKED: ATOM     15  C   UNL     1      24.313 -17.494  -2.015 -0.50 -0.00    +0.000 C 
DOCKED: BRANCH  15  16
DOCKED: ATOM     16  C   UNL     1      23.638 -18.164  -0.811 -0.81 -0.00    +0.000 C 
DOCKED: BRANCH  16  17
DOCKED: ATOM     17  C   UNL     1      22.155 -18.294  -1.006 -0.79 -0.00    +0.000 C 
DOCKED: ATOM     18  N   UNL     1      21.612 -19.418  -1.703 -0.60 -0.00    +0.000 N 
DOCKED: ATOM     19  O   UNL     1      21.385 -17.420  -0.526 -1.64 -0.00    +0.000 OA
DOCKED: ATOM     20  H   UNL     1      22.217 -20.093  -2.087 -0.53 -0.00    +0.000 HD
DOCKED: BRANCH  18  21
DOCKED: ATOM     21  O   UNL     1      20.272 -19.563  -1.839 -1.75 -0.00    +0.000 OA
DOCKED: ATOM     22  H   UNL     1      19.826 -18.768  -1.508 -0.14 -0.00    +0.000 HD
DOCKED: ENDBRANCH  18  21
DOCKED: ENDBRANCH  16  17
DOCKED: ENDBRANCH  15  16
DOCKED: ENDBRANCH  14  15
DOCKED: ENDBRANCH  13  14
DOCKED: ENDBRANCH  12  13
DOCKED: ENDBRANCH   1  12
DOCKED: TORSDOF 9
DOCKED: TER
DOCKED: ENDMDL
________________________________________________________________________________


	BEGINNING GENETIC ALGORITHM DOCKING 46 of 100
Run: 46 Seed: 68730679 1753215466 [ Run 46 of 100 GA/GALS ]
Beginning LAMARCKIAN GENETIC ALGORITHM (LGA), with a maximum of 2500000 energy evaluations.

Final-Value: -12.814


	FINAL GENETIC ALGORITHM DOCKED STATE
	_______________________________________________


Detailed state:  trans 25.414 -17.184 -3.279 quatxyzw 0.033602 -0.806109 -0.548574 -0.219377 center 0.056 -0.347 0.144 ntor 9 -4.6768 180.0000 -90.6451 132.4332 112.6755 -166.1909 30.3371 40.3939 -5.9602
State:	 25.414 -17.184  -3.279   0.034 -0.826 -0.562 -154.655     -4.68  180.00  -90.65  132.43  112.68 -166.19   30.34   40.39   -5.96

DOCKED: MODEL       46
DOCKED: USER    Run = 46
DOCKED: USER    DPF = ligand_dock.biased.dpf
DOCKED: USER  
DOCKED: USER    Estimated Free Energy of Binding    =   -8.95 kcal/mol  [=(1)+(2)+(3)-(4)]
DOCKED: USER    Estimated Inhibition Constant, Ki   =  277.37 nM (nanomolar)  [Temperature = 298.15 K]
DOCKED: USER    
DOCKED: USER    (1) Final Intermolecular Energy     =  -11.63 kcal/mol
DOCKED: USER        vdW + Hbond + desolv Energy     =  -11.63 kcal/mol
DOCKED: USER        Electrostatic Energy            =   +0.00 kcal/mol
DOCKED: USER    (2) Final Total Internal Energy     =   -1.18 kcal/mol
DOCKED: USER    (3) Torsional Free Energy           =   +2.68 kcal/mol
DOCKED: USER    (4) Unbound System's Energy  [=(2)] =   -1.18 kcal/mol
DOCKED: USER    
DOCKED: USER    
DOCKED: USER    NEWDPF move ligand.pdbqt
DOCKED: USER    NEWDPF about 0.056000 -0.347000 0.144000
DOCKED: USER    NEWDPF tran0 25.413797 -17.183641 -3.278524
DOCKED: USER    NEWDPF quaternion0 0.033602 -0.806109 -0.548574 -0.219377
DOCKED: USER    NEWDPF axisangle0 0.034441 -0.826236 -0.562271 -154.655161
DOCKED: USER    NEWDPF quat0 0.034441 -0.826236 -0.562271 -154.655161
DOCKED: USER    NEWDPF dihe0 -4.68 180.00 -90.65 132.43 112.68 -166.19 30.34 40.39 -5.96 
DOCKED: USER  keepresnum = 1 
DOCKED: USER  
DOCKED: REMARK  Name = 
DOCKED: REMARK  9 active torsions:
DOCKED: REMARK  status: ('A' for Active; 'I' for Inactive)
DOCKED: REMARK    1  A    between atoms: C_2  and  C_10
DOCKED: REMARK    2  A    between atoms: N_3  and  C_4
DOCKED: REMARK    3  A    between atoms: C_10  and  C_11
DOCKED: REMARK    4  A    between atoms: C_11  and  C_12
DOCKED: REMARK    5  A    between atoms: C_12  and  C_13
DOCKED: REMARK    6  A    between atoms: C_13  and  C_14
DOCKED: REMARK    7  A    between atoms: C_14  and  C_15
DOCKED: REMARK    8  A    between atoms: C_15  and  C_16
DOCKED: REMARK    9  A    between atoms: N_17  and  O_18
DOCKED: REMARK                            x       y       z     vdW  Elec       q    Type
DOCKED: REMARK                         _______ _______ _______ _____ _____    ______ ____
DOCKED: USER                              x       y       z     vdW  Elec       q    Type
DOCKED: USER                           _______ _______ _______ _____ _____    ______ ____
DOCKED: ROOT
DOCKED: ATOM      1  C   UNL     1      26.043 -15.411  -1.448 -0.44 -0.00    +0.000 C 
DOCKED: ENDROOT
DOCKED: BRANCH   1   3
DOCKED: ATOM      2  O   UNL     1      26.944 -13.759  -2.913 -0.25 -0.00    +0.000 OA
DOCKED: ATOM      3  C   UNL     1      26.915 -14.977  -2.587 -0.34 -0.00    +0.000 C 
DOCKED: ATOM      4  N   UNL     1      27.703 -15.944  -3.300 -0.30 -0.00    +0.000 N 
DOCKED: ATOM      5  H   UNL     1      27.769 -16.853  -2.924 -0.02 -0.00    +0.000 HD
DOCKED: BRANCH   4   6
DOCKED: ATOM      6  C   UNL     1      28.399 -15.669  -4.526 -0.29 -0.00    +0.000 A 
DOCKED: ATOM      7  C   UNL     1      29.659 -16.235  -4.797 -0.26 -0.00    +0.000 A 
DOCKED: ATOM      8  C   UNL     1      30.323 -15.934  -5.991 -0.26 -0.00    +0.000 A 
DOCKED: ATOM      9  C   UNL     1      29.747 -15.058  -6.913 -0.28 -0.00    +0.000 A 
DOCKED: ATOM     10  C   UNL     1      28.508 -14.472  -6.640 -0.31 -0.00    +0.000 A 
DOCKED: ATOM     11  C   UNL     1      27.841 -14.769  -5.449 -0.38 -0.00    +0.000 A 
DOCKED: ENDBRANCH   4   6
DOCKED: ENDBRANCH   1   3
DOCKED: BRANCH   1  12
DOCKED: ATOM     12  C   UNL     1      25.106 -16.539  -1.894 -0.61 -0.00    +0.000 C 
DOCKED: BRANCH  12  13
DOCKED: ATOM     13  C   UNL     1      24.317 -17.099  -0.702 -0.67 -0.00    +0.000 C 
DOCKED: BRANCH  13  14
DOCKED: ATOM     14  C   UNL     1      24.057 -18.608  -0.823 -0.79 -0.00    +0.000 C 
DOCKED: BRANCH  14  15
DOCKED: ATOM     15  C   UNL     1      22.680 -18.925  -1.435 -0.75 -0.00    +0.000 C 
DOCKED: BRANCH  15  16
DOCKED: ATOM     16  C   UNL     1      21.536 -18.689  -0.441 -0.84 -0.00    +0.000 C 
DOCKED: BRANCH  16  17
DOCKED: ATOM     17  C   UNL     1      20.298 -19.446  -0.828 -0.90 -0.00    +0.000 C 
DOCKED: ATOM     18  N   UNL     1      19.163 -19.472   0.040 -0.76 -0.00    +0.000 N 
DOCKED: ATOM     19  O   UNL     1      20.253 -20.038  -1.940 -1.81 -0.00    +0.000 OA
DOCKED: ATOM     20  H   UNL     1      19.207 -19.019   0.914 -0.26 -0.00    +0.000 HD
DOCKED: BRANCH  18  21
DOCKED: ATOM     21  O   UNL     1      18.029 -20.114  -0.326 -0.76 -0.00    +0.000 OA
DOCKED: ATOM     22  H   UNL     1      18.122 -20.441  -1.234 -0.35 -0.00    +0.000 HD
DOCKED: ENDBRANCH  18  21
DOCKED: ENDBRANCH  16  17
DOCKED: ENDBRANCH  15  16
DOCKED: ENDBRANCH  14  15
DOCKED: ENDBRANCH  13  14
DOCKED: ENDBRANCH  12  13
DOCKED: ENDBRANCH   1  12
DOCKED: TORSDOF 9
DOCKED: TER
DOCKED: ENDMDL
________________________________________________________________________________


	BEGINNING GENETIC ALGORITHM DOCKING 47 of 100
Run: 47 Seed: 1329600201 1438864431 [ Run 47 of 100 GA/GALS ]
Beginning LAMARCKIAN GENETIC ALGORITHM (LGA), with a maximum of 2500000 energy evaluations.

Final-Value: -14.039


	FINAL GENETIC ALGORITHM DOCKED STATE
	_______________________________________________


Detailed state:  trans 23.803 -14.988 -2.031 quatxyzw -0.547541 -0.128222 -0.677608 -0.473926 center 0.056 -0.347 0.144 ntor 9 -19.4372 91.9594 131.1485 46.7890 130.1237 64.7326 -147.0564 -64.6816 -57.0196
State:	 23.803 -14.988  -2.031  -0.622 -0.146 -0.770 -123.421    -19.44   91.96  131.15   46.79  130.12   64.73 -147.06  -64.68  -57.02

DOCKED: MODEL       47
DOCKED: USER    Run = 47
DOCKED: USER    DPF = ligand_dock.biased.dpf
DOCKED: USER  
DOCKED: USER    Estimated Free Energy of Binding    =  -10.05 kcal/mol  [=(1)+(2)+(3)-(4)]
DOCKED: USER    Estimated Inhibition Constant, Ki   =   42.75 nM (nanomolar)  [Temperature = 298.15 K]
DOCKED: USER    
DOCKED: USER    (1) Final Intermolecular Energy     =  -12.74 kcal/mol
DOCKED: USER        vdW + Hbond + desolv Energy     =  -12.74 kcal/mol
DOCKED: USER        Electrostatic Energy            =   +0.00 kcal/mol
DOCKED: USER    (2) Final Total Internal Energy     =   -1.30 kcal/mol
DOCKED: USER    (3) Torsional Free Energy           =   +2.68 kcal/mol
DOCKED: USER    (4) Unbound System's Energy  [=(2)] =   -1.30 kcal/mol
DOCKED: USER    
DOCKED: USER    
DOCKED: USER    NEWDPF move ligand.pdbqt
DOCKED: USER    NEWDPF about 0.056000 -0.347000 0.144000
DOCKED: USER    NEWDPF tran0 23.803417 -14.988348 -2.030588
DOCKED: USER    NEWDPF quaternion0 -0.547541 -0.128222 -0.677608 -0.473926
DOCKED: USER    NEWDPF axisangle0 -0.621807 -0.145614 -0.769515 -123.421142
DOCKED: USER    NEWDPF quat0 -0.621807 -0.145614 -0.769515 -123.421142
DOCKED: USER    NEWDPF dihe0 -19.44 91.96 131.15 46.79 130.12 64.73 -147.06 -64.68 -57.02 
DOCKED: USER  keepresnum = 1 
DOCKED: USER  
DOCKED: REMARK  Name = 
DOCKED: REMARK  9 active torsions:
DOCKED: REMARK  status: ('A' for Active; 'I' for Inactive)
DOCKED: REMARK    1  A    between atoms: C_2  and  C_10
DOCKED: REMARK    2  A    between atoms: N_3  and  C_4
DOCKED: REMARK    3  A    between atoms: C_10  and  C_11
DOCKED: REMARK    4  A    between atoms: C_11  and  C_12
DOCKED: REMARK    5  A    between atoms: C_12  and  C_13
DOCKED: REMARK    6  A    between atoms: C_13  and  C_14
DOCKED: REMARK    7  A    between atoms: C_14  and  C_15
DOCKED: REMARK    8  A    between atoms: C_15  and  C_16
DOCKED: REMARK    9  A    between atoms: N_17  and  O_18
DOCKED: REMARK                            x       y       z     vdW  Elec       q    Type
DOCKED: REMARK                         _______ _______ _______ _____ _____    ______ ____
DOCKED: USER                              x       y       z     vdW  Elec       q    Type
DOCKED: USER                           _______ _______ _______ _____ _____    ______ ____
DOCKED: ROOT
DOCKED: ATOM      1  C   UNL     1      26.169 -15.494  -3.049 -0.50 -0.00    +0.000 C 
DOCKED: ENDROOT
DOCKED: BRANCH   1   3
DOCKED: ATOM      2  O   UNL     1      24.645 -14.113  -4.256 -1.09 -0.00    +0.000 OA
DOCKED: ATOM      3  C   UNL     1      25.803 -14.233  -3.772 -0.51 -0.00    +0.000 C 
DOCKED: ATOM      4  N   UNL     1      26.768 -13.178  -3.912 -0.26 -0.00    +0.000 N 
DOCKED: ATOM      5  H   UNL     1      27.604 -13.245  -3.395 +0.00 -0.00    +0.000 HD
DOCKED: BRANCH   4   6
DOCKED: ATOM      6  C   UNL     1      26.589 -12.032  -4.759 -0.24 -0.00    +0.000 A 
DOCKED: ATOM      7  C   UNL     1      25.459 -11.200  -4.639 -0.31 -0.00    +0.000 A 
DOCKED: ATOM      8  C   UNL     1      25.300 -10.102  -5.490 -0.28 -0.00    +0.000 A 
DOCKED: ATOM      9  C   UNL     1      26.255  -9.833  -6.474 -0.14 -0.00    +0.000 A 
DOCKED: ATOM     10  C   UNL     1      27.366 -10.668  -6.617 -0.12 -0.00    +0.000 A 
DOCKED: ATOM     11  C   UNL     1      27.528 -11.767  -5.768 -0.16 -0.00    +0.000 A 
DOCKED: ENDBRANCH   4   6
DOCKED: ENDBRANCH   1   3
DOCKED: BRANCH   1  12
DOCKED: ATOM     12  C   UNL     1      25.122 -15.817  -1.978 -0.50 -0.00    +0.000 C 
DOCKED: BRANCH  12  13
DOCKED: ATOM     13  C   UNL     1      24.519 -17.212  -2.204 -0.45 -0.00    +0.000 C 
DOCKED: BRANCH  13  14
DOCKED: ATOM     14  C   UNL     1      24.969 -18.228  -1.144 -0.64 -0.00    +0.000 C 
DOCKED: BRANCH  14  15
DOCKED: ATOM     15  C   UNL     1      23.808 -19.095  -0.623 -0.58 -0.00    +0.000 C 
DOCKED: BRANCH  15  16
DOCKED: ATOM     16  C   UNL     1      22.675 -18.249  -0.027 -0.79 -0.00    +0.000 C 
DOCKED: BRANCH  16  17
DOCKED: ATOM     17  C   UNL     1      21.407 -18.379  -0.820 -0.81 -0.00    +0.000 C 
DOCKED: ATOM     18  N   UNL     1      21.058 -19.624  -1.429 -0.75 -0.00    +0.000 N 
DOCKED: ATOM     19  O   UNL     1      20.633 -17.390  -0.923 -1.99 -0.00    +0.000 OA
DOCKED: ATOM     20  H   UNL     1      21.671 -20.391  -1.357 -0.27 -0.00    +0.000 HD
DOCKED: BRANCH  18  21
DOCKED: ATOM     21  O   UNL     1      19.893 -19.758  -2.105 -1.89 -0.00    +0.000 OA
DOCKED: ATOM     22  H   UNL     1      19.282 -19.054  -1.838 -0.47 -0.00    +0.000 HD
DOCKED: ENDBRANCH  18  21
DOCKED: ENDBRANCH  16  17
DOCKED: ENDBRANCH  15  16
DOCKED: ENDBRANCH  14  15
DOCKED: ENDBRANCH  13  14
DOCKED: ENDBRANCH  12  13
DOCKED: ENDBRANCH   1  12
DOCKED: TORSDOF 9
DOCKED: TER
DOCKED: ENDMDL
________________________________________________________________________________


	BEGINNING GENETIC ALGORITHM DOCKING 48 of 100
Run: 48 Seed: 1431999330 1596765211 [ Run 48 of 100 GA/GALS ]
Beginning LAMARCKIAN GENETIC ALGORITHM (LGA), with a maximum of 2500000 energy evaluations.

Final-Value: -13.952


	FINAL GENETIC ALGORITHM DOCKED STATE
	_______________________________________________


Detailed state:  trans 25.627 -17.825 0.896 quatxyzw -0.367569 0.207590 -0.563718 -0.709944 center 0.056 -0.347 0.144 ntor 9 85.8431 -164.8400 -132.2497 120.3984 173.6309 95.4632 180.0000 -112.7476 -130.9852
State:	 25.627 -17.825   0.896  -0.522  0.295 -0.800 -89.539     85.84 -164.84 -132.25  120.40  173.63   95.46  180.00 -112.75 -130.99

DOCKED: MODEL       48
DOCKED: USER    Run = 48
DOCKED: USER    DPF = ligand_dock.biased.dpf
DOCKED: USER  
DOCKED: USER    Estimated Free Energy of Binding    =  -10.42 kcal/mol  [=(1)+(2)+(3)-(4)]
DOCKED: USER    Estimated Inhibition Constant, Ki   =   23.06 nM (nanomolar)  [Temperature = 298.15 K]
DOCKED: USER    
DOCKED: USER    (1) Final Intermolecular Energy     =  -13.10 kcal/mol
DOCKED: USER        vdW + Hbond + desolv Energy     =  -13.10 kcal/mol
DOCKED: USER        Electrostatic Energy            =   +0.00 kcal/mol
DOCKED: USER    (2) Final Total Internal Energy     =   -0.85 kcal/mol
DOCKED: USER    (3) Torsional Free Energy           =   +2.68 kcal/mol
DOCKED: USER    (4) Unbound System's Energy  [=(2)] =   -0.85 kcal/mol
DOCKED: USER    
DOCKED: USER    
DOCKED: USER    NEWDPF move ligand.pdbqt
DOCKED: USER    NEWDPF about 0.056000 -0.347000 0.144000
DOCKED: USER    NEWDPF tran0 25.627112 -17.825047 0.896493
DOCKED: USER    NEWDPF quaternion0 -0.367569 0.207590 -0.563718 -0.709944
DOCKED: USER    NEWDPF axisangle0 -0.521924 0.294764 -0.800443 -89.539205
DOCKED: USER    NEWDPF quat0 -0.521924 0.294764 -0.800443 -89.539205
DOCKED: USER    NEWDPF dihe0 85.84 -164.84 -132.25 120.40 173.63 95.46 180.00 -112.75 -130.99 
DOCKED: USER  keepresnum = 1 
DOCKED: USER  
DOCKED: REMARK  Name = 
DOCKED: REMARK  9 active torsions:
DOCKED: REMARK  status: ('A' for Active; 'I' for Inactive)
DOCKED: REMARK    1  A    between atoms: C_2  and  C_10
DOCKED: REMARK    2  A    between atoms: N_3  and  C_4
DOCKED: REMARK    3  A    between atoms: C_10  and  C_11
DOCKED: REMARK    4  A    between atoms: C_11  and  C_12
DOCKED: REMARK    5  A    between atoms: C_12  and  C_13
DOCKED: REMARK    6  A    between atoms: C_13  and  C_14
DOCKED: REMARK    7  A    between atoms: C_14  and  C_15
DOCKED: REMARK    8  A    between atoms: C_15  and  C_16
DOCKED: REMARK    9  A    between atoms: N_17  and  O_18
DOCKED: REMARK                            x       y       z     vdW  Elec       q    Type
DOCKED: REMARK                         _______ _______ _______ _____ _____    ______ ____
DOCKED: USER                              x       y       z     vdW  Elec       q    Type
DOCKED: USER                           _______ _______ _______ _____ _____    ______ ____
DOCKED: ROOT
DOCKED: ATOM      1  C   UNL     1      27.609 -16.893  -0.550 -0.42 -0.00    +0.000 C 
DOCKED: ENDROOT
DOCKED: BRANCH   1   3
DOCKED: ATOM      2  O   UNL     1      26.034 -15.108  -0.410 -0.41 -0.00    +0.000 OA
DOCKED: ATOM      3  C   UNL     1      27.077 -15.633   0.064 -0.34 -0.00    +0.000 C 
DOCKED: ATOM      4  N   UNL     1      27.757 -15.033   1.179 -0.28 -0.00    +0.000 N 
DOCKED: ATOM      5  H   UNL     1      28.475 -15.549   1.613 -1.07 -0.00    +0.000 HD
DOCKED: BRANCH   4   6
DOCKED: ATOM      6  C   UNL     1      27.455 -13.728   1.697 -0.27 -0.00    +0.000 A 
DOCKED: ATOM      7  C   UNL     1      27.799 -13.364   3.013 -0.31 -0.00    +0.000 A 
DOCKED: ATOM      8  C   UNL     1      27.475 -12.093   3.499 -0.25 +0.00    +0.000 A 
DOCKED: ATOM      9  C   UNL     1      26.794 -11.183   2.687 -0.26 +0.00    +0.000 A 
DOCKED: ATOM     10  C   UNL     1      26.426 -11.546   1.388 -0.32 +0.00    +0.000 A 
DOCKED: ATOM     11  C   UNL     1      26.748 -12.815   0.899 -0.28 -0.00    +0.000 A 
DOCKED: ENDBRANCH   4   6
DOCKED: ENDBRANCH   1   3
DOCKED: BRANCH   1  12
DOCKED: ATOM     12  C   UNL     1      26.895 -18.115   0.038 -0.38 -0.00    +0.000 C 
DOCKED: BRANCH  12  13
DOCKED: ATOM     13  C   UNL     1      25.371 -17.920   0.021 -0.62 -0.00    +0.000 C 
DOCKED: BRANCH  13  14
DOCKED: ATOM     14  C   UNL     1      24.815 -17.742  -1.399 -0.69 -0.00    +0.000 C 
DOCKED: BRANCH  14  15
DOCKED: ATOM     15  C   UNL     1      23.283 -17.881  -1.457 -0.69 -0.00    +0.000 C 
DOCKED: BRANCH  15  16
DOCKED: ATOM     16  C   UNL     1      22.708 -18.497  -0.175 -0.80 -0.00    +0.000 C 
DOCKED: BRANCH  16  17
DOCKED: ATOM     17  C   UNL     1      21.251 -18.826  -0.322 -0.82 -0.00    +0.000 C 
DOCKED: ATOM     18  N   UNL     1      20.753 -20.105   0.076 -0.68 -0.00    +0.000 N 
DOCKED: ATOM     19  O   UNL     1      20.458 -17.955  -0.771 -2.25 -0.00    +0.000 OA
DOCKED: ATOM     20  H   UNL     1      21.376 -20.788   0.416 -0.60 -0.00    +0.000 HD
DOCKED: BRANCH  18  21
DOCKED: ATOM     21  O   UNL     1      19.431 -20.388  -0.011 -0.84 -0.00    +0.000 OA
DOCKED: ATOM     22  H   UNL     1      19.227 -20.707  -0.904 -0.51 -0.00    +0.000 HD
DOCKED: ENDBRANCH  18  21
DOCKED: ENDBRANCH  16  17
DOCKED: ENDBRANCH  15  16
DOCKED: ENDBRANCH  14  15
DOCKED: ENDBRANCH  13  14
DOCKED: ENDBRANCH  12  13
DOCKED: ENDBRANCH   1  12
DOCKED: TORSDOF 9
DOCKED: TER
DOCKED: ENDMDL
________________________________________________________________________________


	BEGINNING GENETIC ALGORITHM DOCKING 49 of 100
Run: 49 Seed: 608698079 189669282 [ Run 49 of 100 GA/GALS ]
Beginning LAMARCKIAN GENETIC ALGORITHM (LGA), with a maximum of 2500000 energy evaluations.

Final-Value: -14.014


	FINAL GENETIC ALGORITHM DOCKED STATE
	_______________________________________________


Detailed state:  trans 26.731 -15.488 -0.567 quatxyzw -0.822339 0.392949 -0.395695 -0.113030 center 0.056 -0.347 0.144 ntor 9 7.2058 -110.1208 164.5364 -176.8027 72.6852 -152.7076 173.0622 178.7059 -28.0316
State:	 26.731 -15.488  -0.567  -0.828  0.395 -0.398 -167.020      7.21 -110.12  164.54 -176.80   72.69 -152.71  173.06  178.71  -28.03

DOCKED: MODEL       49
DOCKED: USER    Run = 49
DOCKED: USER    DPF = ligand_dock.biased.dpf
DOCKED: USER  
DOCKED: USER    Estimated Free Energy of Binding    =  -10.04 kcal/mol  [=(1)+(2)+(3)-(4)]
DOCKED: USER    Estimated Inhibition Constant, Ki   =   43.68 nM (nanomolar)  [Temperature = 298.15 K]
DOCKED: USER    
DOCKED: USER    (1) Final Intermolecular Energy     =  -12.73 kcal/mol
DOCKED: USER        vdW + Hbond + desolv Energy     =  -12.73 kcal/mol
DOCKED: USER        Electrostatic Energy            =   +0.00 kcal/mol
DOCKED: USER    (2) Final Total Internal Energy     =   -1.29 kcal/mol
DOCKED: USER    (3) Torsional Free Energy           =   +2.68 kcal/mol
DOCKED: USER    (4) Unbound System's Energy  [=(2)] =   -1.29 kcal/mol
DOCKED: USER    
DOCKED: USER    
DOCKED: USER    NEWDPF move ligand.pdbqt
DOCKED: USER    NEWDPF about 0.056000 -0.347000 0.144000
DOCKED: USER    NEWDPF tran0 26.730904 -15.488210 -0.567498
DOCKED: USER    NEWDPF quaternion0 -0.822339 0.392949 -0.395695 -0.113030
DOCKED: USER    NEWDPF axisangle0 -0.827642 0.395484 -0.398247 -167.019962
DOCKED: USER    NEWDPF quat0 -0.827642 0.395484 -0.398247 -167.019962
DOCKED: USER    NEWDPF dihe0 7.21 -110.12 164.54 -176.80 72.69 -152.71 173.06 178.71 -28.03 
DOCKED: USER  keepresnum = 1 
DOCKED: USER  
DOCKED: REMARK  Name = 
DOCKED: REMARK  9 active torsions:
DOCKED: REMARK  status: ('A' for Active; 'I' for Inactive)
DOCKED: REMARK    1  A    between atoms: C_2  and  C_10
DOCKED: REMARK    2  A    between atoms: N_3  and  C_4
DOCKED: REMARK    3  A    between atoms: C_10  and  C_11
DOCKED: REMARK    4  A    between atoms: C_11  and  C_12
DOCKED: REMARK    5  A    between atoms: C_12  and  C_13
DOCKED: REMARK    6  A    between atoms: C_13  and  C_14
DOCKED: REMARK    7  A    between atoms: C_14  and  C_15
DOCKED: REMARK    8  A    between atoms: C_15  and  C_16
DOCKED: REMARK    9  A    between atoms: N_17  and  O_18
DOCKED: REMARK                            x       y       z     vdW  Elec       q    Type
DOCKED: REMARK                         _______ _______ _______ _____ _____    ______ ____
DOCKED: USER                              x       y       z     vdW  Elec       q    Type
DOCKED: USER                           _______ _______ _______ _____ _____    ______ ____
DOCKED: ROOT
DOCKED: ATOM      1  C   UNL     1      25.715 -16.847  -2.570 -0.36 -0.00    +0.000 C 
DOCKED: ENDROOT
DOCKED: BRANCH   1   3
DOCKED: ATOM      2  O   UNL     1      25.000 -14.624  -3.055 -0.63 -0.00    +0.000 OA
DOCKED: ATOM      3  C   UNL     1      25.899 -15.497  -3.196 -0.55 -0.00    +0.000 C 
DOCKED: ATOM      4  N   UNL     1      27.087 -15.209  -3.950 -0.38 -0.00    +0.000 N 
DOCKED: ATOM      5  H   UNL     1      27.828 -15.858  -3.911 -0.01 -0.00    +0.000 HD
DOCKED: BRANCH   4   6
DOCKED: ATOM      6  C   UNL     1      27.263 -14.034  -4.757 -0.32 -0.00    +0.000 A 
DOCKED: ATOM      7  C   UNL     1      28.025 -14.064  -5.940 -0.29 -0.00    +0.000 A 
DOCKED: ATOM      8  C   UNL     1      28.196 -12.901  -6.697 -0.21 -0.00    +0.000 A 
DOCKED: ATOM      9  C   UNL     1      27.623 -11.698  -6.276 -0.16 -0.00    +0.000 A 
DOCKED: ATOM     10  C   UNL     1      26.886 -11.654  -5.090 -0.19 -0.00    +0.000 A 
DOCKED: ATOM     11  C   UNL     1      26.713 -12.815  -4.330 -0.26 -0.00    +0.000 A 
DOCKED: ENDBRANCH   4   6
DOCKED: ENDBRANCH   1   3
DOCKED: BRANCH   1  12
DOCKED: ATOM     12  C   UNL     1      26.321 -16.869  -1.163 -0.53 -0.00    +0.000 C 
DOCKED: BRANCH  12  13
DOCKED: ATOM     13  C   UNL     1      25.591 -17.881  -0.267 -0.67 -0.00    +0.000 C 
DOCKED: BRANCH  13  14
DOCKED: ATOM     14  C   UNL     1      24.344 -18.473  -0.940 -0.76 -0.00    +0.000 C 
DOCKED: BRANCH  14  15
DOCKED: ATOM     15  C   UNL     1      23.116 -17.551  -0.830 -0.76 -0.00    +0.000 C 
DOCKED: BRANCH  15  16
DOCKED: ATOM     16  C   UNL     1      21.998 -18.174   0.017 -0.76 -0.00    +0.000 C 
DOCKED: BRANCH  16  17
DOCKED: ATOM     17  C   UNL     1      20.832 -18.597  -0.828 -0.81 -0.00    +0.000 C 
DOCKED: ATOM     18  N   UNL     1      20.956 -19.692  -1.738 -0.71 -0.00    +0.000 N 
DOCKED: ATOM     19  O   UNL     1      19.729 -18.000  -0.711 -1.71 -0.00    +0.000 OA
DOCKED: ATOM     20  H   UNL     1      21.823 -20.150  -1.836 -0.48 -0.00    +0.000 HD
DOCKED: BRANCH  18  21
DOCKED: ATOM     21  O   UNL     1      19.893 -20.108  -2.467 -1.70 -0.00    +0.000 OA
DOCKED: ATOM     22  H   UNL     1      19.156 -19.490  -2.343 -0.47 -0.00    +0.000 HD
DOCKED: ENDBRANCH  18  21
DOCKED: ENDBRANCH  16  17
DOCKED: ENDBRANCH  15  16
DOCKED: ENDBRANCH  14  15
DOCKED: ENDBRANCH  13  14
DOCKED: ENDBRANCH  12  13
DOCKED: ENDBRANCH   1  12
DOCKED: TORSDOF 9
DOCKED: TER
DOCKED: ENDMDL
________________________________________________________________________________


	BEGINNING GENETIC ALGORITHM DOCKING 50 of 100
Run: 50 Seed: 397840931 448213616 [ Run 50 of 100 GA/GALS ]
Beginning LAMARCKIAN GENETIC ALGORITHM (LGA), with a maximum of 2500000 energy evaluations.

Final-Value: -13.517


	FINAL GENETIC ALGORITHM DOCKED STATE
	_______________________________________________


Detailed state:  trans 27.608 -16.357 -1.643 quatxyzw 0.575382 -0.657141 -0.194067 0.446587 center 0.056 -0.347 0.144 ntor 9 -18.0486 -71.5151 -142.6788 -153.5115 61.9003 -180.0000 -4.7148 -119.3800 -82.9959
State:	 27.608 -16.357  -1.643   0.643 -0.734 -0.217 126.950    -18.05  -71.52 -142.68 -153.51   61.90 -180.00   -4.71 -119.38  -83.00

DOCKED: MODEL       50
DOCKED: USER    Run = 50
DOCKED: USER    DPF = ligand_dock.biased.dpf
DOCKED: USER  
DOCKED: USER    Estimated Free Energy of Binding    =   -9.33 kcal/mol  [=(1)+(2)+(3)-(4)]
DOCKED: USER    Estimated Inhibition Constant, Ki   =  145.00 nM (nanomolar)  [Temperature = 298.15 K]
DOCKED: USER    
DOCKED: USER    (1) Final Intermolecular Energy     =  -12.01 kcal/mol
DOCKED: USER        vdW + Hbond + desolv Energy     =  -12.01 kcal/mol
DOCKED: USER        Electrostatic Energy            =   +0.00 kcal/mol
DOCKED: USER    (2) Final Total Internal Energy     =   -1.50 kcal/mol
DOCKED: USER    (3) Torsional Free Energy           =   +2.68 kcal/mol
DOCKED: USER    (4) Unbound System's Energy  [=(2)] =   -1.50 kcal/mol
DOCKED: USER    
DOCKED: USER    
DOCKED: USER    NEWDPF move ligand.pdbqt
DOCKED: USER    NEWDPF about 0.056000 -0.347000 0.144000
DOCKED: USER    NEWDPF tran0 27.607985 -16.357464 -1.643388
DOCKED: USER    NEWDPF quaternion0 0.575382 -0.657141 -0.194067 0.446587
DOCKED: USER    NEWDPF axisangle0 0.643071 -0.734449 -0.216898 126.950199
DOCKED: USER    NEWDPF quat0 0.643071 -0.734449 -0.216898 126.950199
DOCKED: USER    NEWDPF dihe0 -18.05 -71.52 -142.68 -153.51 61.90 -180.00 -4.71 -119.38 -83.00 
DOCKED: USER  keepresnum = 1 
DOCKED: USER  
DOCKED: REMARK  Name = 
DOCKED: REMARK  9 active torsions:
DOCKED: REMARK  status: ('A' for Active; 'I' for Inactive)
DOCKED: REMARK    1  A    between atoms: C_2  and  C_10
DOCKED: REMARK    2  A    between atoms: N_3  and  C_4
DOCKED: REMARK    3  A    between atoms: C_10  and  C_11
DOCKED: REMARK    4  A    between atoms: C_11  and  C_12
DOCKED: REMARK    5  A    between atoms: C_12  and  C_13
DOCKED: REMARK    6  A    between atoms: C_13  and  C_14
DOCKED: REMARK    7  A    between atoms: C_14  and  C_15
DOCKED: REMARK    8  A    between atoms: C_15  and  C_16
DOCKED: REMARK    9  A    between atoms: N_17  and  O_18
DOCKED: REMARK                            x       y       z     vdW  Elec       q    Type
DOCKED: REMARK                         _______ _______ _______ _____ _____    ______ ____
DOCKED: USER                              x       y       z     vdW  Elec       q    Type
DOCKED: USER                           _______ _______ _______ _____ _____    ______ ____
DOCKED: ROOT
DOCKED: ATOM      1  C   UNL     1      25.556 -14.842  -2.259 -0.39 -0.00    +0.000 C 
DOCKED: ENDROOT
DOCKED: BRANCH   1   3
DOCKED: ATOM      2  O   UNL     1      27.034 -13.075  -1.643 -0.21 -0.00    +0.000 OA
DOCKED: ATOM      3  C   UNL     1      26.258 -13.987  -1.248 -0.24 -0.00    +0.000 C 
DOCKED: ATOM      4  N   UNL     1      26.047 -14.212   0.155 -0.27 -0.00    +0.000 N 
DOCKED: ATOM      5  H   UNL     1      25.325 -14.827   0.421 +0.04 -0.00    +0.000 HD
DOCKED: BRANCH   4   6
DOCKED: ATOM      6  C   UNL     1      26.825 -13.596   1.194 -0.24 -0.00    +0.000 A 
DOCKED: ATOM      7  C   UNL     1      27.748 -14.337   1.957 -0.25 -0.00    +0.000 A 
DOCKED: ATOM      8  C   UNL     1      28.478 -13.716   2.975 -0.28 -0.00    +0.000 A 
DOCKED: ATOM      9  C   UNL     1      28.284 -12.361   3.253 -0.22 -0.00    +0.000 A 
DOCKED: ATOM     10  C   UNL     1      27.352 -11.624   2.518 -0.25 +0.00    +0.000 A 
DOCKED: ATOM     11  C   UNL     1      26.620 -12.240   1.499 -0.30 +0.00    +0.000 A 
DOCKED: ENDBRANCH   4   6
DOCKED: ENDBRANCH   1   3
DOCKED: BRANCH   1  12
DOCKED: ATOM     12  C   UNL     1      26.394 -16.083  -2.581 -0.46 -0.00    +0.000 C 
DOCKED: BRANCH  12  13
DOCKED: ATOM     13  C   UNL     1      25.929 -17.290  -1.753 -0.49 -0.00    +0.000 C 
DOCKED: BRANCH  13  14
DOCKED: ATOM     14  C   UNL     1      24.428 -17.574  -1.916 -0.61 -0.00    +0.000 C 
DOCKED: BRANCH  14  15
DOCKED: ATOM     15  C   UNL     1      23.620 -17.230  -0.652 -0.70 -0.00    +0.000 C 
DOCKED: BRANCH  15  16
DOCKED: ATOM     16  C   UNL     1      22.778 -18.415  -0.162 -0.80 -0.00    +0.000 C 
DOCKED: BRANCH  16  17
DOCKED: ATOM     17  C   UNL     1      21.456 -18.488  -0.869 -0.82 -0.00    +0.000 C 
DOCKED: ATOM     18  N   UNL     1      21.092 -19.656  -1.608 -0.69 -0.00    +0.000 N 
DOCKED: ATOM     19  O   UNL     1      20.650 -17.522  -0.784 -2.11 +0.00    +0.000 OA
DOCKED: ATOM     20  H   UNL     1      21.728 -20.404  -1.682 -0.38 -0.00    +0.000 HD
DOCKED: BRANCH  18  21
DOCKED: ATOM     21  O   UNL     1      19.881 -19.744  -2.207 -1.89 -0.00    +0.000 OA
DOCKED: ATOM     22  H   UNL     1      19.281 -19.087  -1.820 -0.46 -0.00    +0.000 HD
DOCKED: ENDBRANCH  18  21
DOCKED: ENDBRANCH  16  17
DOCKED: ENDBRANCH  15  16
DOCKED: ENDBRANCH  14  15
DOCKED: ENDBRANCH  13  14
DOCKED: ENDBRANCH  12  13
DOCKED: ENDBRANCH   1  12
DOCKED: TORSDOF 9
DOCKED: TER
DOCKED: ENDMDL
________________________________________________________________________________


	BEGINNING GENETIC ALGORITHM DOCKING 51 of 100
Run: 51 Seed: 396955682 1845199737 [ Run 51 of 100 GA/GALS ]
Beginning LAMARCKIAN GENETIC ALGORITHM (LGA), with a maximum of 2500000 energy evaluations.

Final-Value: -13.819


	FINAL GENETIC ALGORITHM DOCKED STATE
	_______________________________________________


Detailed state:  trans 25.122 -15.056 0.675 quatxyzw -0.048938 -0.472120 0.621466 0.623288 center 0.056 -0.347 0.144 ntor 9 -7.1484 58.7398 -84.0749 49.2388 -33.0780 -151.5367 -152.9154 18.3453 64.9653
State:	 25.122 -15.056   0.675  -0.063 -0.604  0.795 102.887     -7.15   58.74  -84.07   49.24  -33.08 -151.54 -152.92   18.35   64.97

DOCKED: MODEL       51
DOCKED: USER    Run = 51
DOCKED: USER    DPF = ligand_dock.biased.dpf
DOCKED: USER  
DOCKED: USER    Estimated Free Energy of Binding    =  -10.00 kcal/mol  [=(1)+(2)+(3)-(4)]
DOCKED: USER    Estimated Inhibition Constant, Ki   =   46.37 nM (nanomolar)  [Temperature = 298.15 K]
DOCKED: USER    
DOCKED: USER    (1) Final Intermolecular Energy     =  -12.69 kcal/mol
DOCKED: USER        vdW + Hbond + desolv Energy     =  -12.69 kcal/mol
DOCKED: USER        Electrostatic Energy            =   +0.00 kcal/mol
DOCKED: USER    (2) Final Total Internal Energy     =   -1.13 kcal/mol
DOCKED: USER    (3) Torsional Free Energy           =   +2.68 kcal/mol
DOCKED: USER    (4) Unbound System's Energy  [=(2)] =   -1.13 kcal/mol
DOCKED: USER    
DOCKED: USER    
DOCKED: USER    NEWDPF move ligand.pdbqt
DOCKED: USER    NEWDPF about 0.056000 -0.347000 0.144000
DOCKED: USER    NEWDPF tran0 25.122435 -15.056346 0.675184
DOCKED: USER    NEWDPF quaternion0 -0.048938 -0.472120 0.621466 0.623288
DOCKED: USER    NEWDPF axisangle0 -0.062581 -0.603739 0.794722 102.886770
DOCKED: USER    NEWDPF quat0 -0.062581 -0.603739 0.794722 102.886770
DOCKED: USER    NEWDPF dihe0 -7.15 58.74 -84.07 49.24 -33.08 -151.54 -152.92 18.35 64.97 
DOCKED: USER  keepresnum = 1 
DOCKED: USER  
DOCKED: REMARK  Name = 
DOCKED: REMARK  9 active torsions:
DOCKED: REMARK  status: ('A' for Active; 'I' for Inactive)
DOCKED: REMARK    1  A    between atoms: C_2  and  C_10
DOCKED: REMARK    2  A    between atoms: N_3  and  C_4
DOCKED: REMARK    3  A    between atoms: C_10  and  C_11
DOCKED: REMARK    4  A    between atoms: C_11  and  C_12
DOCKED: REMARK    5  A    between atoms: C_12  and  C_13
DOCKED: REMARK    6  A    between atoms: C_13  and  C_14
DOCKED: REMARK    7  A    between atoms: C_14  and  C_15
DOCKED: REMARK    8  A    between atoms: C_15  and  C_16
DOCKED: REMARK    9  A    between atoms: N_17  and  O_18
DOCKED: REMARK                            x       y       z     vdW  Elec       q    Type
DOCKED: REMARK                         _______ _______ _______ _____ _____    ______ ____
DOCKED: USER                              x       y       z     vdW  Elec       q    Type
DOCKED: USER                           _______ _______ _______ _____ _____    ______ ____
DOCKED: ROOT
DOCKED: ATOM      1  C   UNL     1      27.649 -14.617   0.118 -0.27 -0.00    +0.000 C 
DOCKED: ENDROOT
DOCKED: BRANCH   1   3
DOCKED: ATOM      2  O   UNL     1      26.655 -13.263   1.811 -0.39 -0.00    +0.000 OA
DOCKED: ATOM      3  C   UNL     1      27.562 -14.089   1.519 -0.30 -0.00    +0.000 C 
DOCKED: ATOM      4  N   UNL     1      28.508 -14.520   2.510 -0.25 -0.00    +0.000 N 
DOCKED: ATOM      5  H   UNL     1      29.102 -15.272   2.286 -1.91 -0.00    +0.000 HD
DOCKED: BRANCH   4   6
DOCKED: ATOM      6  C   UNL     1      28.640 -13.920   3.809 -0.36 -0.00    +0.000 A 
DOCKED: ATOM      7  C   UNL     1      27.590 -13.182   4.387 -0.39 -0.00    +0.000 A 
DOCKED: ATOM      8  C   UNL     1      27.753 -12.593   5.645 -0.40 +0.00    +0.000 A 
DOCKED: ATOM      9  C   UNL     1      28.965 -12.719   6.328 -0.35 -0.00    +0.000 A 
DOCKED: ATOM     10  C   UNL     1      30.021 -13.429   5.750 -0.28 -0.00    +0.000 A 
DOCKED: ATOM     11  C   UNL     1      29.863 -14.019   4.493 -0.31 -0.00    +0.000 A 
DOCKED: ENDBRANCH   4   6
DOCKED: ENDBRANCH   1   3
DOCKED: BRANCH   1  12
DOCKED: ATOM     12  C   UNL     1      26.331 -15.288  -0.281 -0.31 -0.00    +0.000 C 
DOCKED: BRANCH  12  13
DOCKED: ATOM     13  C   UNL     1      26.532 -16.792  -0.521 -0.51 -0.00    +0.000 C 
DOCKED: BRANCH  13  14
DOCKED: ATOM     14  C   UNL     1      25.324 -17.447  -1.207 -0.66 -0.00    +0.000 C 
DOCKED: BRANCH  14  15
DOCKED: ATOM     15  C   UNL     1      24.186 -17.770  -0.222 -0.67 -0.00    +0.000 C 
DOCKED: BRANCH  15  16
DOCKED: ATOM     16  C   UNL     1      22.804 -17.458  -0.810 -0.74 -0.00    +0.000 C 
DOCKED: BRANCH  16  17
DOCKED: ATOM     17  C   UNL     1      21.958 -18.692  -0.927 -0.83 -0.00    +0.000 C 
DOCKED: ATOM     18  N   UNL     1      20.632 -18.613  -1.455 -0.63 -0.00    +0.000 N 
DOCKED: ATOM     19  O   UNL     1      22.432 -19.807  -0.584 -0.67 -0.00    +0.000 OA
DOCKED: ATOM     20  H   UNL     1      20.259 -17.739  -1.712 -0.40 -0.00    +0.000 HD
DOCKED: BRANCH  18  21
DOCKED: ATOM     21  O   UNL     1      19.882 -19.731  -1.606 -1.77 -0.00    +0.000 OA
DOCKED: ATOM     22  H   UNL     1      20.426 -20.512  -1.417 -0.27 -0.00    +0.000 HD
DOCKED: ENDBRANCH  18  21
DOCKED: ENDBRANCH  16  17
DOCKED: ENDBRANCH  15  16
DOCKED: ENDBRANCH  14  15
DOCKED: ENDBRANCH  13  14
DOCKED: ENDBRANCH  12  13
DOCKED: ENDBRANCH   1  12
DOCKED: TORSDOF 9
DOCKED: TER
DOCKED: ENDMDL
________________________________________________________________________________


	BEGINNING GENETIC ALGORITHM DOCKING 52 of 100
Run: 52 Seed: 1924413754 561031419 [ Run 52 of 100 GA/GALS ]
Beginning LAMARCKIAN GENETIC ALGORITHM (LGA), with a maximum of 2500000 energy evaluations.

Final-Value: -13.471


	FINAL GENETIC ALGORITHM DOCKED STATE
	_______________________________________________


Detailed state:  trans 23.255 -17.224 0.842 quatxyzw 0.871281 0.233124 -0.246639 0.354530 center 0.056 -0.347 0.144 ntor 9 -3.7111 -49.0041 -128.3766 20.5306 -153.3586 81.8105 -31.5399 -29.0361 29.1191
State:	 23.255 -17.224   0.842   0.932  0.249 -0.264 138.471     -3.71  -49.00 -128.38   20.53 -153.36   81.81  -31.54  -29.04   29.12

DOCKED: MODEL       52
DOCKED: USER    Run = 52
DOCKED: USER    DPF = ligand_dock.biased.dpf
DOCKED: USER  
DOCKED: USER    Estimated Free Energy of Binding    =   -9.47 kcal/mol  [=(1)+(2)+(3)-(4)]
DOCKED: USER    Estimated Inhibition Constant, Ki   =  115.05 nM (nanomolar)  [Temperature = 298.15 K]
DOCKED: USER    
DOCKED: USER    (1) Final Intermolecular Energy     =  -12.15 kcal/mol
DOCKED: USER        vdW + Hbond + desolv Energy     =  -12.15 kcal/mol
DOCKED: USER        Electrostatic Energy            =   +0.00 kcal/mol
DOCKED: USER    (2) Final Total Internal Energy     =   -1.32 kcal/mol
DOCKED: USER    (3) Torsional Free Energy           =   +2.68 kcal/mol
DOCKED: USER    (4) Unbound System's Energy  [=(2)] =   -1.32 kcal/mol
DOCKED: USER    
DOCKED: USER    
DOCKED: USER    NEWDPF move ligand.pdbqt
DOCKED: USER    NEWDPF about 0.056000 -0.347000 0.144000
DOCKED: USER    NEWDPF tran0 23.254852 -17.224110 0.842385
DOCKED: USER    NEWDPF quaternion0 0.871281 0.233124 -0.246639 0.354530
DOCKED: USER    NEWDPF axisangle0 0.931807 0.249319 -0.263773 138.470752
DOCKED: USER    NEWDPF quat0 0.931807 0.249319 -0.263773 138.470752
DOCKED: USER    NEWDPF dihe0 -3.71 -49.00 -128.38 20.53 -153.36 81.81 -31.54 -29.04 29.12 
DOCKED: USER  keepresnum = 1 
DOCKED: USER  
DOCKED: REMARK  Name = 
DOCKED: REMARK  9 active torsions:
DOCKED: REMARK  status: ('A' for Active; 'I' for Inactive)
DOCKED: REMARK    1  A    between atoms: C_2  and  C_10
DOCKED: REMARK    2  A    between atoms: N_3  and  C_4
DOCKED: REMARK    3  A    between atoms: C_10  and  C_11
DOCKED: REMARK    4  A    between atoms: C_11  and  C_12
DOCKED: REMARK    5  A    between atoms: C_12  and  C_13
DOCKED: REMARK    6  A    between atoms: C_13  and  C_14
DOCKED: REMARK    7  A    between atoms: C_14  and  C_15
DOCKED: REMARK    8  A    between atoms: C_15  and  C_16
DOCKED: REMARK    9  A    between atoms: N_17  and  O_18
DOCKED: REMARK                            x       y       z     vdW  Elec       q    Type
DOCKED: REMARK                         _______ _______ _______ _____ _____    ______ ____
DOCKED: USER                              x       y       z     vdW  Elec       q    Type
DOCKED: USER                           _______ _______ _______ _____ _____    ______ ____
DOCKED: ROOT
DOCKED: ATOM      1  C   UNL     1      22.990 -18.724  -1.295 -0.79 -0.00    +0.000 C 
DOCKED: ENDROOT
DOCKED: BRANCH   1   3
DOCKED: ATOM      2  O   UNL     1      20.861 -17.827  -0.706 -2.22 -0.00    +0.000 OA
DOCKED: ATOM      3  C   UNL     1      21.623 -18.832  -0.691 -0.86 -0.00    +0.000 C 
DOCKED: ATOM      4  N   UNL     1      21.193 -20.068  -0.099 -0.56 -0.00    +0.000 N 
DOCKED: ATOM      5  H   UNL     1      21.752 -20.867  -0.240 -0.16 -0.00    +0.000 HD
DOCKED: BRANCH   4   6
DOCKED: ATOM      6  C   UNL     1      19.998 -20.212   0.685 -0.66 -0.00    +0.000 A 
DOCKED: ATOM      7  C   UNL     1      19.991 -19.942   2.067 -0.49 -0.00    +0.000 A 
DOCKED: ATOM      8  C   UNL     1      18.818 -20.109   2.811 -0.08 -0.00    +0.000 A 
DOCKED: ATOM      9  C   UNL     1      17.651 -20.559   2.189 -0.54 -0.00    +0.000 A 
DOCKED: ATOM     10  C   UNL     1      17.656 -20.853   0.823 -0.49 -0.00    +0.000 A 
DOCKED: ATOM     11  C   UNL     1      18.826 -20.688   0.076 -0.33 -0.00    +0.000 A 
DOCKED: ENDBRANCH   4   6
DOCKED: ENDBRANCH   1   3
DOCKED: BRANCH   1  12
DOCKED: ATOM     12  C   UNL     1      23.837 -17.710  -0.519 -0.75 -0.00    +0.000 C 
DOCKED: BRANCH  12  13
DOCKED: ATOM     13  C   UNL     1      24.882 -17.054  -1.434 -0.66 -0.00    +0.000 C 
DOCKED: BRANCH  13  14
DOCKED: ATOM     14  C   UNL     1      25.135 -15.581  -1.080 -0.31 -0.00    +0.000 C 
DOCKED: BRANCH  14  15
DOCKED: ATOM     15  C   UNL     1      26.548 -15.112  -1.469 -0.37 -0.00    +0.000 C 
DOCKED: BRANCH  15  16
DOCKED: ATOM     16  C   UNL     1      27.199 -16.034  -2.508 -0.36 -0.00    +0.000 C 
DOCKED: BRANCH  16  17
DOCKED: ATOM     17  C   UNL     1      26.876 -15.607  -3.910 -0.43 -0.00    +0.000 C 
DOCKED: ATOM     18  N   UNL     1      27.896 -15.571  -4.910 -0.40 -0.00    +0.000 N 
DOCKED: ATOM     19  O   UNL     1      25.690 -15.307  -4.212 -0.74 -0.00    +0.000 OA
DOCKED: ATOM     20  H   UNL     1      28.825 -15.795  -4.669 -0.01 -0.00    +0.000 HD
DOCKED: BRANCH  18  21
DOCKED: ATOM     21  O   UNL     1      27.599 -15.232  -6.188 -0.92 +0.00    +0.000 OA
DOCKED: ATOM     22  H   UNL     1      26.642 -15.099  -6.272 -0.03 +0.00    +0.000 HD
DOCKED: ENDBRANCH  18  21
DOCKED: ENDBRANCH  16  17
DOCKED: ENDBRANCH  15  16
DOCKED: ENDBRANCH  14  15
DOCKED: ENDBRANCH  13  14
DOCKED: ENDBRANCH  12  13
DOCKED: ENDBRANCH   1  12
DOCKED: TORSDOF 9
DOCKED: TER
DOCKED: ENDMDL
________________________________________________________________________________


	BEGINNING GENETIC ALGORITHM DOCKING 53 of 100
Run: 53 Seed: 237830831 1858734410 [ Run 53 of 100 GA/GALS ]
Beginning LAMARCKIAN GENETIC ALGORITHM (LGA), with a maximum of 2500000 energy evaluations.

Final-Value: -14.226


	FINAL GENETIC ALGORITHM DOCKED STATE
	_______________________________________________


Detailed state:  trans 26.278 -16.512 -0.162 quatxyzw -0.106879 0.499122 -0.392767 -0.764976 center 0.056 -0.347 0.144 ntor 9 -127.5374 67.0299 -180.0000 112.2809 67.7100 168.1301 170.4217 26.4023 -143.7603
State:	 26.278 -16.512  -0.162  -0.166  0.775 -0.610 -80.190   -127.54   67.03 -180.00  112.28   67.71  168.13  170.42   26.40 -143.76

DOCKED: MODEL       53
DOCKED: USER    Run = 53
DOCKED: USER    DPF = ligand_dock.biased.dpf
DOCKED: USER  
DOCKED: USER    Estimated Free Energy of Binding    =  -10.77 kcal/mol  [=(1)+(2)+(3)-(4)]
DOCKED: USER    Estimated Inhibition Constant, Ki   =   12.71 nM (nanomolar)  [Temperature = 298.15 K]
DOCKED: USER    
DOCKED: USER    (1) Final Intermolecular Energy     =  -13.46 kcal/mol
DOCKED: USER        vdW + Hbond + desolv Energy     =  -13.46 kcal/mol
DOCKED: USER        Electrostatic Energy            =   +0.00 kcal/mol
DOCKED: USER    (2) Final Total Internal Energy     =   -0.77 kcal/mol
DOCKED: USER    (3) Torsional Free Energy           =   +2.68 kcal/mol
DOCKED: USER    (4) Unbound System's Energy  [=(2)] =   -0.77 kcal/mol
DOCKED: USER    
DOCKED: USER    
DOCKED: USER    NEWDPF move ligand.pdbqt
DOCKED: USER    NEWDPF about 0.056000 -0.347000 0.144000
DOCKED: USER    NEWDPF tran0 26.278268 -16.511984 -0.162046
DOCKED: USER    NEWDPF quaternion0 -0.106879 0.499122 -0.392767 -0.764976
DOCKED: USER    NEWDPF axisangle0 -0.165945 0.774963 -0.609832 -80.190279
DOCKED: USER    NEWDPF quat0 -0.165945 0.774963 -0.609832 -80.190279
DOCKED: USER    NEWDPF dihe0 -127.54 67.03 -180.00 112.28 67.71 168.13 170.42 26.40 -143.76 
DOCKED: USER  keepresnum = 1 
DOCKED: USER  
DOCKED: REMARK  Name = 
DOCKED: REMARK  9 active torsions:
DOCKED: REMARK  status: ('A' for Active; 'I' for Inactive)
DOCKED: REMARK    1  A    between atoms: C_2  and  C_10
DOCKED: REMARK    2  A    between atoms: N_3  and  C_4
DOCKED: REMARK    3  A    between atoms: C_10  and  C_11
DOCKED: REMARK    4  A    between atoms: C_11  and  C_12
DOCKED: REMARK    5  A    between atoms: C_12  and  C_13
DOCKED: REMARK    6  A    between atoms: C_13  and  C_14
DOCKED: REMARK    7  A    between atoms: C_14  and  C_15
DOCKED: REMARK    8  A    between atoms: C_15  and  C_16
DOCKED: REMARK    9  A    between atoms: N_17  and  O_18
DOCKED: REMARK                            x       y       z     vdW  Elec       q    Type
DOCKED: REMARK                         _______ _______ _______ _____ _____    ______ ____
DOCKED: USER                              x       y       z     vdW  Elec       q    Type
DOCKED: USER                           _______ _______ _______ _____ _____    ______ ____
DOCKED: ROOT
DOCKED: ATOM      1  C   UNL     1      28.028 -14.673  -0.829 -0.21 -0.00    +0.000 C 
DOCKED: ENDROOT
DOCKED: BRANCH   1   3
DOCKED: ATOM      2  O   UNL     1      26.810 -13.542   0.881 -0.34 -0.00    +0.000 OA
DOCKED: ATOM      3  C   UNL     1      27.763 -14.319   0.603 -0.26 -0.00    +0.000 C 
DOCKED: ATOM      4  N   UNL     1      28.594 -14.860   1.643 -0.14 -0.00    +0.000 N 
DOCKED: ATOM      5  H   UNL     1      29.227 -15.575   1.403 -1.10 -0.00    +0.000 HD
DOCKED: BRANCH   4   6
DOCKED: ATOM      6  C   UNL     1      28.558 -14.421   3.010 -0.24 -0.00    +0.000 A 
DOCKED: ATOM      7  C   UNL     1      27.375 -13.925   3.591 -0.42 -0.00    +0.000 A 
DOCKED: ATOM      8  C   UNL     1      27.373 -13.486   4.919 -0.41 -0.00    +0.000 A 
DOCKED: ATOM      9  C   UNL     1      28.549 -13.524   5.673 -0.42 -0.00    +0.000 A 
DOCKED: ATOM     10  C   UNL     1      29.733 -13.991   5.096 -0.32 -0.00    +0.000 A 
DOCKED: ATOM     11  C   UNL     1      29.739 -14.431   3.770 -0.30 -0.00    +0.000 A 
DOCKED: ENDBRANCH   4   6
DOCKED: ENDBRANCH   1   3
DOCKED: BRANCH   1  12
DOCKED: ATOM     12  C   UNL     1      27.316 -15.979  -1.195 -0.37 -0.00    +0.000 C 
DOCKED: BRANCH  12  13
DOCKED: ATOM     13  C   UNL     1      25.962 -16.086  -0.479 -0.38 -0.00    +0.000 C 
DOCKED: BRANCH  13  14
DOCKED: ATOM     14  C   UNL     1      25.446 -17.530  -0.401 -0.64 -0.00    +0.000 C 
DOCKED: BRANCH  14  15
DOCKED: ATOM     15  C   UNL     1      24.078 -17.709  -1.082 -0.76 -0.00    +0.000 C 
DOCKED: BRANCH  15  16
DOCKED: ATOM     16  C   UNL     1      23.005 -18.207  -0.105 -0.78 -0.00    +0.000 C 
DOCKED: BRANCH  16  17
DOCKED: ATOM     17  C   UNL     1      21.679 -18.396  -0.784 -0.84 -0.00    +0.000 C 
DOCKED: ATOM     18  N   UNL     1      21.389 -19.608  -1.483 -0.64 -0.00    +0.000 N 
DOCKED: ATOM     19  O   UNL     1      20.808 -17.488  -0.710 -2.08 +0.00    +0.000 OA
DOCKED: ATOM     20  H   UNL     1      22.076 -20.310  -1.548 -0.34 -0.00    +0.000 HD
DOCKED: BRANCH  18  21
DOCKED: ATOM     21  O   UNL     1      20.177 -19.800  -2.056 -1.86 -0.00    +0.000 OA
DOCKED: ATOM     22  H   UNL     1      19.807 -20.645  -1.753 -0.61 -0.00    +0.000 HD
DOCKED: ENDBRANCH  18  21
DOCKED: ENDBRANCH  16  17
DOCKED: ENDBRANCH  15  16
DOCKED: ENDBRANCH  14  15
DOCKED: ENDBRANCH  13  14
DOCKED: ENDBRANCH  12  13
DOCKED: ENDBRANCH   1  12
DOCKED: TORSDOF 9
DOCKED: TER
DOCKED: ENDMDL
________________________________________________________________________________


	BEGINNING GENETIC ALGORITHM DOCKING 54 of 100
Run: 54 Seed: 261954858 824403469 [ Run 54 of 100 GA/GALS ]
Beginning LAMARCKIAN GENETIC ALGORITHM (LGA), with a maximum of 2500000 energy evaluations.

Final-Value: -13.358


	FINAL GENETIC ALGORITHM DOCKED STATE
	_______________________________________________


Detailed state:  trans 25.910 -17.335 -1.184 quatxyzw 0.322968 0.770517 0.492550 0.243700 center 0.056 -0.347 0.144 ntor 9 -14.3292 180.0000 -180.0000 28.7771 -30.4697 -175.9143 -178.6660 21.9198 172.3785
State:	 25.910 -17.335  -1.184   0.333  0.794  0.508 151.790    -14.33  180.00 -180.00   28.78  -30.47 -175.91 -178.67   21.92  172.38

DOCKED: MODEL       54
DOCKED: USER    Run = 54
DOCKED: USER    DPF = ligand_dock.biased.dpf
DOCKED: USER  
DOCKED: USER    Estimated Free Energy of Binding    =   -9.35 kcal/mol  [=(1)+(2)+(3)-(4)]
DOCKED: USER    Estimated Inhibition Constant, Ki   =  140.45 nM (nanomolar)  [Temperature = 298.15 K]
DOCKED: USER    
DOCKED: USER    (1) Final Intermolecular Energy     =  -12.03 kcal/mol
DOCKED: USER        vdW + Hbond + desolv Energy     =  -12.03 kcal/mol
DOCKED: USER        Electrostatic Energy            =   +0.00 kcal/mol
DOCKED: USER    (2) Final Total Internal Energy     =   -1.33 kcal/mol
DOCKED: USER    (3) Torsional Free Energy           =   +2.68 kcal/mol
DOCKED: USER    (4) Unbound System's Energy  [=(2)] =   -1.33 kcal/mol
DOCKED: USER    
DOCKED: USER    
DOCKED: USER    NEWDPF move ligand.pdbqt
DOCKED: USER    NEWDPF about 0.056000 -0.347000 0.144000
DOCKED: USER    NEWDPF tran0 25.910243 -17.334577 -1.183905
DOCKED: USER    NEWDPF quaternion0 0.322968 0.770517 0.492550 0.243700
DOCKED: USER    NEWDPF axisangle0 0.333008 0.794469 0.507862 151.789984
DOCKED: USER    NEWDPF quat0 0.333008 0.794469 0.507862 151.789984
DOCKED: USER    NEWDPF dihe0 -14.33 180.00 -180.00 28.78 -30.47 -175.91 -178.67 21.92 172.38 
DOCKED: USER  keepresnum = 1 
DOCKED: USER  
DOCKED: REMARK  Name = 
DOCKED: REMARK  9 active torsions:
DOCKED: REMARK  status: ('A' for Active; 'I' for Inactive)
DOCKED: REMARK    1  A    between atoms: C_2  and  C_10
DOCKED: REMARK    2  A    between atoms: N_3  and  C_4
DOCKED: REMARK    3  A    between atoms: C_10  and  C_11
DOCKED: REMARK    4  A    between atoms: C_11  and  C_12
DOCKED: REMARK    5  A    between atoms: C_12  and  C_13
DOCKED: REMARK    6  A    between atoms: C_13  and  C_14
DOCKED: REMARK    7  A    between atoms: C_14  and  C_15
DOCKED: REMARK    8  A    between atoms: C_15  and  C_16
DOCKED: REMARK    9  A    between atoms: N_17  and  O_18
DOCKED: REMARK                            x       y       z     vdW  Elec       q    Type
DOCKED: REMARK                         _______ _______ _______ _____ _____    ______ ____
DOCKED: USER                              x       y       z     vdW  Elec       q    Type
DOCKED: USER                           _______ _______ _______ _____ _____    ______ ____
DOCKED: ROOT
DOCKED: ATOM      1  C   UNL     1      28.029 -16.030  -0.349 -0.32 -0.00    +0.000 C 
DOCKED: ENDROOT
DOCKED: BRANCH   1   3
DOCKED: ATOM      2  O   UNL     1      28.755 -17.348  -2.199 -0.28 -0.00    +0.000 OA
DOCKED: ATOM      3  C   UNL     1      28.356 -16.221  -1.799 -0.29 -0.00    +0.000 C 
DOCKED: ATOM      4  N   UNL     1      28.217 -15.126  -2.718 -0.19 -0.00    +0.000 N 
DOCKED: ATOM      5  H   UNL     1      27.763 -14.311  -2.401 +0.01 -0.00    +0.000 HD
DOCKED: BRANCH   4   6
DOCKED: ATOM      6  C   UNL     1      28.701 -15.144  -4.071 -0.22 -0.00    +0.000 A 
DOCKED: ATOM      7  C   UNL     1      27.985 -14.527  -5.114 -0.33 -0.00    +0.000 A 
DOCKED: ATOM      8  C   UNL     1      28.468 -14.578  -6.426 -0.33 -0.00    +0.000 A 
DOCKED: ATOM      9  C   UNL     1      29.657 -15.254  -6.710 -0.31 -0.00    +0.000 A 
DOCKED: ATOM     10  C   UNL     1      30.361 -15.890  -5.684 -0.23 -0.00    +0.000 A 
DOCKED: ATOM     11  C   UNL     1      29.881 -15.843  -4.372 -0.19 -0.00    +0.000 A 
DOCKED: ENDBRANCH   4   6
DOCKED: ENDBRANCH   1   3
DOCKED: BRANCH   1  12
DOCKED: ATOM     12  C   UNL     1      26.606 -16.516  -0.055 -0.38 -0.00    +0.000 C 
DOCKED: BRANCH  12  13
DOCKED: ATOM     13  C   UNL     1      25.868 -16.869  -1.355 -0.57 -0.00    +0.000 C 
DOCKED: BRANCH  13  14
DOCKED: ATOM     14  C   UNL     1      24.349 -16.984  -1.158 -0.68 -0.00    +0.000 C 
DOCKED: BRANCH  14  15
DOCKED: ATOM     15  C   UNL     1      23.860 -18.443  -1.154 -0.79 -0.00    +0.000 C 
DOCKED: BRANCH  15  16
DOCKED: ATOM     16  C   UNL     1      22.742 -18.677  -0.130 -0.76 -0.00    +0.000 C 
DOCKED: BRANCH  16  17
DOCKED: ATOM     17  C   UNL     1      21.384 -18.618  -0.767 -0.86 -0.00    +0.000 C 
DOCKED: ATOM     18  N   UNL     1      20.832 -19.771  -1.405 -0.75 -0.00    +0.000 N 
DOCKED: ATOM     19  O   UNL     1      20.716 -17.551  -0.710 -2.12 +0.00    +0.000 OA
DOCKED: ATOM     20  H   UNL     1      21.361 -20.601  -1.458 -0.20 -0.00    +0.000 HD
DOCKED: BRANCH  18  21
DOCKED: ATOM     21  O   UNL     1      19.588 -19.735  -1.939 -1.68 -0.00    +0.000 OA
DOCKED: ATOM     22  H   UNL     1      19.121 -18.950  -1.616 -0.56 -0.00    +0.000 HD
DOCKED: ENDBRANCH  18  21
DOCKED: ENDBRANCH  16  17
DOCKED: ENDBRANCH  15  16
DOCKED: ENDBRANCH  14  15
DOCKED: ENDBRANCH  13  14
DOCKED: ENDBRANCH  12  13
DOCKED: ENDBRANCH   1  12
DOCKED: TORSDOF 9
DOCKED: TER
DOCKED: ENDMDL
________________________________________________________________________________


	BEGINNING GENETIC ALGORITHM DOCKING 55 of 100
Run: 55 Seed: 1643968036 1580225856 [ Run 55 of 100 GA/GALS ]
Beginning LAMARCKIAN GENETIC ALGORITHM (LGA), with a maximum of 2500000 energy evaluations.

Final-Value: -14.620


	FINAL GENETIC ALGORITHM DOCKED STATE
	_______________________________________________


Detailed state:  trans 28.254 -16.152 -2.182 quatxyzw -0.565883 0.705611 -0.307339 0.295691 center 0.056 -0.347 0.144 ntor 9 17.3593 -81.6923 126.8205 35.2145 -42.3839 95.8492 79.6691 176.6937 25.3453
State:	 28.254 -16.152  -2.182  -0.592  0.739 -0.322 145.602     17.36  -81.69  126.82   35.21  -42.38   95.85   79.67  176.69   25.35

DOCKED: MODEL       55
DOCKED: USER    Run = 55
DOCKED: USER    DPF = ligand_dock.biased.dpf
DOCKED: USER  
DOCKED: USER    Estimated Free Energy of Binding    =  -10.66 kcal/mol  [=(1)+(2)+(3)-(4)]
DOCKED: USER    Estimated Inhibition Constant, Ki   =   15.30 nM (nanomolar)  [Temperature = 298.15 K]
DOCKED: USER    
DOCKED: USER    (1) Final Intermolecular Energy     =  -13.35 kcal/mol
DOCKED: USER        vdW + Hbond + desolv Energy     =  -13.35 kcal/mol
DOCKED: USER        Electrostatic Energy            =   +0.00 kcal/mol
DOCKED: USER    (2) Final Total Internal Energy     =   -1.27 kcal/mol
DOCKED: USER    (3) Torsional Free Energy           =   +2.68 kcal/mol
DOCKED: USER    (4) Unbound System's Energy  [=(2)] =   -1.27 kcal/mol
DOCKED: USER    
DOCKED: USER    
DOCKED: USER    NEWDPF move ligand.pdbqt
DOCKED: USER    NEWDPF about 0.056000 -0.347000 0.144000
DOCKED: USER    NEWDPF tran0 28.254019 -16.151967 -2.181753
DOCKED: USER    NEWDPF quaternion0 -0.565883 0.705611 -0.307339 0.295691
DOCKED: USER    NEWDPF axisangle0 -0.592371 0.738640 -0.321725 145.602069
DOCKED: USER    NEWDPF quat0 -0.592371 0.738640 -0.321725 145.602069
DOCKED: USER    NEWDPF dihe0 17.36 -81.69 126.82 35.21 -42.38 95.85 79.67 176.69 25.35 
DOCKED: USER  keepresnum = 1 
DOCKED: USER  
DOCKED: REMARK  Name = 
DOCKED: REMARK  9 active torsions:
DOCKED: REMARK  status: ('A' for Active; 'I' for Inactive)
DOCKED: REMARK    1  A    between atoms: C_2  and  C_10
DOCKED: REMARK    2  A    between atoms: N_3  and  C_4
DOCKED: REMARK    3  A    between atoms: C_10  and  C_11
DOCKED: REMARK    4  A    between atoms: C_11  and  C_12
DOCKED: REMARK    5  A    between atoms: C_12  and  C_13
DOCKED: REMARK    6  A    between atoms: C_13  and  C_14
DOCKED: REMARK    7  A    between atoms: C_14  and  C_15
DOCKED: REMARK    8  A    between atoms: C_15  and  C_16
DOCKED: REMARK    9  A    between atoms: N_17  and  O_18
DOCKED: REMARK                            x       y       z     vdW  Elec       q    Type
DOCKED: REMARK                         _______ _______ _______ _____ _____    ______ ____
DOCKED: USER                              x       y       z     vdW  Elec       q    Type
DOCKED: USER                           _______ _______ _______ _____ _____    ______ ____
DOCKED: ROOT
DOCKED: ATOM      1  C   UNL     1      25.880 -15.988  -3.289 -0.52 -0.00    +0.000 C 
DOCKED: ENDROOT
DOCKED: BRANCH   1   3
DOCKED: ATOM      2  O   UNL     1      26.244 -15.306  -5.545 -1.07 +0.00    +0.000 OA
DOCKED: ATOM      3  C   UNL     1      26.766 -15.612  -4.438 -0.44 -0.00    +0.000 C 
DOCKED: ATOM      4  N   UNL     1      28.193 -15.607  -4.276 -0.32 -0.00    +0.000 N 
DOCKED: ATOM      5  H   UNL     1      28.554 -15.703  -3.365 -0.00 -0.00    +0.000 HD
DOCKED: BRANCH   4   6
DOCKED: ATOM      6  C   UNL     1      29.125 -15.470  -5.360 -0.30 -0.00    +0.000 A 
DOCKED: ATOM      7  C   UNL     1      30.056 -16.483  -5.659 -0.29 -0.00    +0.000 A 
DOCKED: ATOM      8  C   UNL     1      30.965 -16.315  -6.708 -0.25 -0.00    +0.000 A 
DOCKED: ATOM      9  C   UNL     1      30.966 -15.135  -7.455 -0.23 -0.00    +0.000 A 
DOCKED: ATOM     10  C   UNL     1      30.063 -14.114  -7.148 -0.24 -0.00    +0.000 A 
DOCKED: ATOM     11  C   UNL     1      29.152 -14.277  -6.101 -0.27 -0.00    +0.000 A 
DOCKED: ENDBRANCH   4   6
DOCKED: ENDBRANCH   1   3
DOCKED: BRANCH   1  12
DOCKED: ATOM     12  C   UNL     1      26.724 -16.432  -2.090 -0.43 -0.00    +0.000 C 
DOCKED: BRANCH  12  13
DOCKED: ATOM     13  C   UNL     1      25.925 -17.372  -1.175 -0.59 -0.00    +0.000 C 
DOCKED: BRANCH  13  14
DOCKED: ATOM     14  C   UNL     1      24.439 -17.445  -1.556 -0.70 -0.00    +0.000 C 
DOCKED: BRANCH  14  15
DOCKED: ATOM     15  C   UNL     1      23.707 -18.611  -0.868 -0.82 -0.00    +0.000 C 
DOCKED: BRANCH  15  16
DOCKED: ATOM     16  C   UNL     1      22.409 -18.158  -0.186 -0.81 -0.00    +0.000 C 
DOCKED: BRANCH  16  17
DOCKED: ATOM     17  C   UNL     1      21.197 -18.548  -0.983 -0.79 -0.00    +0.000 C 
DOCKED: ATOM     18  N   UNL     1      21.207 -19.732  -1.783 -0.57 -0.00    +0.000 N 
DOCKED: ATOM     19  O   UNL     1      20.157 -17.840  -0.919 -2.06 -0.00    +0.000 OA
DOCKED: ATOM     20  H   UNL     1      22.025 -20.276  -1.840 -0.44 -0.00    +0.000 HD
DOCKED: BRANCH  18  21
DOCKED: ATOM     21  O   UNL     1      20.100 -20.112  -2.465 -1.71 -0.00    +0.000 OA
DOCKED: ATOM     22  H   UNL     1      19.490 -19.361  -2.536 -0.50 -0.00    +0.000 HD
DOCKED: ENDBRANCH  18  21
DOCKED: ENDBRANCH  16  17
DOCKED: ENDBRANCH  15  16
DOCKED: ENDBRANCH  14  15
DOCKED: ENDBRANCH  13  14
DOCKED: ENDBRANCH  12  13
DOCKED: ENDBRANCH   1  12
DOCKED: TORSDOF 9
DOCKED: TER
DOCKED: ENDMDL
________________________________________________________________________________


	BEGINNING GENETIC ALGORITHM DOCKING 56 of 100
Run: 56 Seed: 554273941 76037013 [ Run 56 of 100 GA/GALS ]
Beginning LAMARCKIAN GENETIC ALGORITHM (LGA), with a maximum of 2500000 energy evaluations.

Final-Value: -15.043


	FINAL GENETIC ALGORITHM DOCKED STATE
	_______________________________________________


Detailed state:  trans 25.756 -14.918 -1.008 quatxyzw -0.230910 -0.208706 0.741640 0.594216 center 0.056 -0.347 0.144 ntor 9 3.9610 -10.4271 -80.5507 136.2625 -1.6972 126.3812 -121.6039 59.5403 134.1458
State:	 25.756 -14.918  -1.008  -0.287 -0.259  0.922 107.086      3.96  -10.43  -80.55  136.26   -1.70  126.38 -121.60   59.54  134.15

DOCKED: MODEL       56
DOCKED: USER    Run = 56
DOCKED: USER    DPF = ligand_dock.biased.dpf
DOCKED: USER  
DOCKED: USER    Estimated Free Energy of Binding    =  -11.20 kcal/mol  [=(1)+(2)+(3)-(4)]
DOCKED: USER    Estimated Inhibition Constant, Ki   =    6.18 nM (nanomolar)  [Temperature = 298.15 K]
DOCKED: USER    
DOCKED: USER    (1) Final Intermolecular Energy     =  -13.88 kcal/mol
DOCKED: USER        vdW + Hbond + desolv Energy     =  -13.88 kcal/mol
DOCKED: USER        Electrostatic Energy            =   +0.00 kcal/mol
DOCKED: USER    (2) Final Total Internal Energy     =   -1.16 kcal/mol
DOCKED: USER    (3) Torsional Free Energy           =   +2.68 kcal/mol
DOCKED: USER    (4) Unbound System's Energy  [=(2)] =   -1.16 kcal/mol
DOCKED: USER    
DOCKED: USER    
DOCKED: USER    NEWDPF move ligand.pdbqt
DOCKED: USER    NEWDPF about 0.056000 -0.347000 0.144000
DOCKED: USER    NEWDPF tran0 25.756050 -14.918070 -1.007896
DOCKED: USER    NEWDPF quaternion0 -0.230910 -0.208706 0.741640 0.594216
DOCKED: USER    NEWDPF axisangle0 -0.287092 -0.259486 0.922087 107.086455
DOCKED: USER    NEWDPF quat0 -0.287092 -0.259486 0.922087 107.086455
DOCKED: USER    NEWDPF dihe0 3.96 -10.43 -80.55 136.26 -1.70 126.38 -121.60 59.54 134.15 
DOCKED: USER  keepresnum = 1 
DOCKED: USER  
DOCKED: REMARK  Name = 
DOCKED: REMARK  9 active torsions:
DOCKED: REMARK  status: ('A' for Active; 'I' for Inactive)
DOCKED: REMARK    1  A    between atoms: C_2  and  C_10
DOCKED: REMARK    2  A    between atoms: N_3  and  C_4
DOCKED: REMARK    3  A    between atoms: C_10  and  C_11
DOCKED: REMARK    4  A    between atoms: C_11  and  C_12
DOCKED: REMARK    5  A    between atoms: C_12  and  C_13
DOCKED: REMARK    6  A    between atoms: C_13  and  C_14
DOCKED: REMARK    7  A    between atoms: C_14  and  C_15
DOCKED: REMARK    8  A    between atoms: C_15  and  C_16
DOCKED: REMARK    9  A    between atoms: N_17  and  O_18
DOCKED: REMARK                            x       y       z     vdW  Elec       q    Type
DOCKED: REMARK                         _______ _______ _______ _____ _____    ______ ____
DOCKED: USER                              x       y       z     vdW  Elec       q    Type
DOCKED: USER                           _______ _______ _______ _____ _____    ______ ____
DOCKED: ROOT
DOCKED: ATOM      1  C   UNL     1      28.192 -15.461  -0.194 -0.27 -0.00    +0.000 C 
DOCKED: ENDROOT
DOCKED: BRANCH   1   3
DOCKED: ATOM      2  O   UNL     1      26.741 -13.777   0.668 -0.35 -0.00    +0.000 OA
DOCKED: ATOM      3  C   UNL     1      27.720 -14.540   0.890 -0.29 -0.00    +0.000 C 
DOCKED: ATOM      4  N   UNL     1      28.382 -14.530   2.164 -0.25 -0.00    +0.000 N 
DOCKED: ATOM      5  H   UNL     1      29.040 -15.240   2.349 -1.93 -0.00    +0.000 HD
DOCKED: BRANCH   4   6
DOCKED: ATOM      6  C   UNL     1      28.147 -13.547   3.185 -0.31 -0.00    +0.000 A 
DOCKED: ATOM      7  C   UNL     1      28.124 -12.171   2.888 -0.20 -0.00    +0.000 A 
DOCKED: ATOM      8  C   UNL     1      27.912 -11.234   3.904 -0.27 +0.00    +0.000 A 
DOCKED: ATOM      9  C   UNL     1      27.737 -11.658   5.224 -0.34 +0.00    +0.000 A 
DOCKED: ATOM     10  C   UNL     1      27.783 -13.021   5.532 -0.41 -0.00    +0.000 A 
DOCKED: ATOM     11  C   UNL     1      27.995 -13.960   4.519 -0.50 -0.00    +0.000 A 
DOCKED: ENDBRANCH   4   6
DOCKED: ENDBRANCH   1   3
DOCKED: BRANCH   1  12
DOCKED: ATOM     12  C   UNL     1      27.044 -15.783  -1.157 -0.38 -0.00    +0.000 C 
DOCKED: BRANCH  12  13
DOCKED: ATOM     13  C   UNL     1      25.765 -16.140  -0.386 -0.29 -0.00    +0.000 C 
DOCKED: BRANCH  13  14
DOCKED: ATOM     14  C   UNL     1      25.172 -17.490  -0.818 -0.68 -0.00    +0.000 C 
DOCKED: BRANCH  14  15
DOCKED: ATOM     15  C   UNL     1      23.706 -17.660  -0.382 -0.73 -0.00    +0.000 C 
DOCKED: BRANCH  15  16
DOCKED: ATOM     16  C   UNL     1      23.054 -18.899  -1.011 -0.82 -0.00    +0.000 C 
DOCKED: BRANCH  16  17
DOCKED: ATOM     17  C   UNL     1      21.562 -18.760  -1.095 -0.81 -0.00    +0.000 C 
DOCKED: ATOM     18  N   UNL     1      20.760 -19.839  -1.580 -0.70 -0.00    +0.000 N 
DOCKED: ATOM     19  O   UNL     1      21.013 -17.694  -0.707 -2.12 -0.00    +0.000 OA
DOCKED: ATOM     20  H   UNL     1      21.193 -20.666  -1.893 -0.29 -0.00    +0.000 HD
DOCKED: BRANCH  18  21
DOCKED: ATOM     21  O   UNL     1      19.410 -19.735  -1.612 -1.46 -0.00    +0.000 OA
DOCKED: ATOM     22  H   UNL     1      19.148 -18.844  -1.332 -0.49 -0.00    +0.000 HD
DOCKED: ENDBRANCH  18  21
DOCKED: ENDBRANCH  16  17
DOCKED: ENDBRANCH  15  16
DOCKED: ENDBRANCH  14  15
DOCKED: ENDBRANCH  13  14
DOCKED: ENDBRANCH  12  13
DOCKED: ENDBRANCH   1  12
DOCKED: TORSDOF 9
DOCKED: TER
DOCKED: ENDMDL
________________________________________________________________________________


	BEGINNING GENETIC ALGORITHM DOCKING 57 of 100
Run: 57 Seed: 791268599 1151905489 [ Run 57 of 100 GA/GALS ]
Beginning LAMARCKIAN GENETIC ALGORITHM (LGA), with a maximum of 2500000 energy evaluations.

Final-Value: -14.636


	FINAL GENETIC ALGORITHM DOCKED STATE
	_______________________________________________


Detailed state:  trans 27.924 -16.050 -2.447 quatxyzw -0.522639 0.741683 -0.199800 0.369911 center 0.056 -0.347 0.144 ntor 9 14.0126 166.6903 126.2679 38.3060 -39.2625 110.3499 4.4777 164.2496 53.4422
State:	 27.924 -16.050  -2.447  -0.563  0.798 -0.215 136.580     14.01  166.69  126.27   38.31  -39.26  110.35    4.48  164.25   53.44

DOCKED: MODEL       57
DOCKED: USER    Run = 57
DOCKED: USER    DPF = ligand_dock.biased.dpf
DOCKED: USER  
DOCKED: USER    Estimated Free Energy of Binding    =  -10.65 kcal/mol  [=(1)+(2)+(3)-(4)]
DOCKED: USER    Estimated Inhibition Constant, Ki   =   15.70 nM (nanomolar)  [Temperature = 298.15 K]
DOCKED: USER    
DOCKED: USER    (1) Final Intermolecular Energy     =  -13.33 kcal/mol
DOCKED: USER        vdW + Hbond + desolv Energy     =  -13.33 kcal/mol
DOCKED: USER        Electrostatic Energy            =   +0.00 kcal/mol
DOCKED: USER    (2) Final Total Internal Energy     =   -1.30 kcal/mol
DOCKED: USER    (3) Torsional Free Energy           =   +2.68 kcal/mol
DOCKED: USER    (4) Unbound System's Energy  [=(2)] =   -1.30 kcal/mol
DOCKED: USER    
DOCKED: USER    
DOCKED: USER    NEWDPF move ligand.pdbqt
DOCKED: USER    NEWDPF about 0.056000 -0.347000 0.144000
DOCKED: USER    NEWDPF tran0 27.924279 -16.049843 -2.447132
DOCKED: USER    NEWDPF quaternion0 -0.522639 0.741683 -0.199800 0.369911
DOCKED: USER    NEWDPF axisangle0 -0.562542 0.798310 -0.215054 136.579743
DOCKED: USER    NEWDPF quat0 -0.562542 0.798310 -0.215054 136.579743
DOCKED: USER    NEWDPF dihe0 14.01 166.69 126.27 38.31 -39.26 110.35 4.48 164.25 53.44 
DOCKED: USER  keepresnum = 1 
DOCKED: USER  
DOCKED: REMARK  Name = 
DOCKED: REMARK  9 active torsions:
DOCKED: REMARK  status: ('A' for Active; 'I' for Inactive)
DOCKED: REMARK    1  A    between atoms: C_2  and  C_10
DOCKED: REMARK    2  A    between atoms: N_3  and  C_4
DOCKED: REMARK    3  A    between atoms: C_10  and  C_11
DOCKED: REMARK    4  A    between atoms: C_11  and  C_12
DOCKED: REMARK    5  A    between atoms: C_12  and  C_13
DOCKED: REMARK    6  A    between atoms: C_13  and  C_14
DOCKED: REMARK    7  A    between atoms: C_14  and  C_15
DOCKED: REMARK    8  A    between atoms: C_15  and  C_16
DOCKED: REMARK    9  A    between atoms: N_17  and  O_18
DOCKED: REMARK                            x       y       z     vdW  Elec       q    Type
DOCKED: REMARK                         _______ _______ _______ _____ _____    ______ ____
DOCKED: USER                              x       y       z     vdW  Elec       q    Type
DOCKED: USER                           _______ _______ _______ _____ _____    ______ ____
DOCKED: ROOT
DOCKED: ATOM      1  C   UNL     1      25.488 -15.316  -3.091 -0.55 -0.00    +0.000 C 
DOCKED: ENDROOT
DOCKED: BRANCH   1   3
DOCKED: ATOM      2  O   UNL     1      26.061 -15.798  -5.355 -1.13 +0.00    +0.000 OA
DOCKED: ATOM      3  C   UNL     1      26.225 -15.034  -4.366 -0.57 -0.00    +0.000 C 
DOCKED: ATOM      4  N   UNL     1      27.110 -13.906  -4.451 -0.30 -0.00    +0.000 N 
DOCKED: ATOM      5  H   UNL     1      27.097 -13.252  -3.714 +0.00 -0.00    +0.000 HD
DOCKED: BRANCH   4   6
DOCKED: ATOM      6  C   UNL     1      28.014 -13.674  -5.543 -0.26 -0.00    +0.000 A 
DOCKED: ATOM      7  C   UNL     1      28.067 -12.430  -6.200 -0.18 -0.00    +0.000 A 
DOCKED: ATOM      8  C   UNL     1      28.943 -12.237  -7.273 -0.18 -0.00    +0.000 A 
DOCKED: ATOM      9  C   UNL     1      29.760 -13.283  -7.709 -0.19 -0.00    +0.000 A 
DOCKED: ATOM     10  C   UNL     1      29.696 -14.528  -7.079 -0.29 -0.00    +0.000 A 
DOCKED: ATOM     11  C   UNL     1      28.822 -14.725  -6.006 -0.34 -0.00    +0.000 A 
DOCKED: ENDBRANCH   4   6
DOCKED: ENDBRANCH   1   3
DOCKED: BRANCH   1  12
DOCKED: ATOM     12  C   UNL     1      26.408 -16.020  -2.088 -0.46 -0.00    +0.000 C 
DOCKED: BRANCH  12  13
DOCKED: ATOM     13  C   UNL     1      25.767 -17.317  -1.573 -0.56 -0.00    +0.000 C 
DOCKED: BRANCH  13  14
DOCKED: ATOM     14  C   UNL     1      24.240 -17.325  -1.734 -0.63 -0.00    +0.000 C 
DOCKED: BRANCH  14  15
DOCKED: ATOM     15  C   UNL     1      23.593 -18.611  -1.189 -0.80 -0.00    +0.000 C 
DOCKED: BRANCH  15  16
DOCKED: ATOM     16  C   UNL     1      22.374 -18.317  -0.305 -0.84 -0.00    +0.000 C 
DOCKED: BRANCH  16  17
DOCKED: ATOM     17  C   UNL     1      21.088 -18.662  -0.999 -0.82 -0.00    +0.000 C 
DOCKED: ATOM     18  N   UNL     1      21.043 -19.723  -1.955 -0.56 -0.00    +0.000 N 
DOCKED: ATOM     19  O   UNL     1      20.037 -18.029  -0.712 -2.00 -0.00    +0.000 OA
DOCKED: ATOM     20  H   UNL     1      21.869 -20.208  -2.185 -0.54 -0.00    +0.000 HD
DOCKED: BRANCH  18  21
DOCKED: ATOM     21  O   UNL     1      19.875 -20.068  -2.548 -1.66 -0.00    +0.000 OA
DOCKED: ATOM     22  H   UNL     1      19.217 -19.374  -2.392 -0.48 -0.00    +0.000 HD
DOCKED: ENDBRANCH  18  21
DOCKED: ENDBRANCH  16  17
DOCKED: ENDBRANCH  15  16
DOCKED: ENDBRANCH  14  15
DOCKED: ENDBRANCH  13  14
DOCKED: ENDBRANCH  12  13
DOCKED: ENDBRANCH   1  12
DOCKED: TORSDOF 9
DOCKED: TER
DOCKED: ENDMDL
________________________________________________________________________________


	BEGINNING GENETIC ALGORITHM DOCKING 58 of 100
Run: 58 Seed: 855478128 445299264 [ Run 58 of 100 GA/GALS ]
Beginning LAMARCKIAN GENETIC ALGORITHM (LGA), with a maximum of 2500000 energy evaluations.

Final-Value: -14.766


	FINAL GENETIC ALGORITHM DOCKED STATE
	_______________________________________________


Detailed state:  trans 26.085 -16.799 1.174 quatxyzw -0.317916 0.484489 -0.350128 -0.735942 center 0.056 -0.347 0.144 ntor 9 -4.6451 -179.9496 138.3497 69.4745 -158.6654 66.6531 154.0616 -33.0717 -77.8838
State:	 26.085 -16.799   1.174  -0.470  0.716 -0.517 -85.226     -4.65 -179.95  138.35   69.47 -158.67   66.65  154.06  -33.07  -77.88

DOCKED: MODEL       58
DOCKED: USER    Run = 58
DOCKED: USER    DPF = ligand_dock.biased.dpf
DOCKED: USER  
DOCKED: USER    Estimated Free Energy of Binding    =  -10.80 kcal/mol  [=(1)+(2)+(3)-(4)]
DOCKED: USER    Estimated Inhibition Constant, Ki   =   12.11 nM (nanomolar)  [Temperature = 298.15 K]
DOCKED: USER    
DOCKED: USER    (1) Final Intermolecular Energy     =  -13.49 kcal/mol
DOCKED: USER        vdW + Hbond + desolv Energy     =  -13.49 kcal/mol
DOCKED: USER        Electrostatic Energy            =   +0.00 kcal/mol
DOCKED: USER    (2) Final Total Internal Energy     =   -1.28 kcal/mol
DOCKED: USER    (3) Torsional Free Energy           =   +2.68 kcal/mol
DOCKED: USER    (4) Unbound System's Energy  [=(2)] =   -1.28 kcal/mol
DOCKED: USER    
DOCKED: USER    
DOCKED: USER    NEWDPF move ligand.pdbqt
DOCKED: USER    NEWDPF about 0.056000 -0.347000 0.144000
DOCKED: USER    NEWDPF tran0 26.085393 -16.798581 1.173893
DOCKED: USER    NEWDPF quaternion0 -0.317916 0.484489 -0.350128 -0.735942
DOCKED: USER    NEWDPF axisangle0 -0.469564 0.715594 -0.517141 -85.226297
DOCKED: USER    NEWDPF quat0 -0.469564 0.715594 -0.517141 -85.226297
DOCKED: USER    NEWDPF dihe0 -4.65 -179.95 138.35 69.47 -158.67 66.65 154.06 -33.07 -77.88 
DOCKED: USER  keepresnum = 1 
DOCKED: USER  
DOCKED: REMARK  Name = 
DOCKED: REMARK  9 active torsions:
DOCKED: REMARK  status: ('A' for Active; 'I' for Inactive)
DOCKED: REMARK    1  A    between atoms: C_2  and  C_10
DOCKED: REMARK    2  A    between atoms: N_3  and  C_4
DOCKED: REMARK    3  A    between atoms: C_10  and  C_11
DOCKED: REMARK    4  A    between atoms: C_11  and  C_12
DOCKED: REMARK    5  A    between atoms: C_12  and  C_13
DOCKED: REMARK    6  A    between atoms: C_13  and  C_14
DOCKED: REMARK    7  A    between atoms: C_14  and  C_15
DOCKED: REMARK    8  A    between atoms: C_15  and  C_16
DOCKED: REMARK    9  A    between atoms: N_17  and  O_18
DOCKED: REMARK                            x       y       z     vdW  Elec       q    Type
DOCKED: REMARK                         _______ _______ _______ _____ _____    ______ ____
DOCKED: USER                              x       y       z     vdW  Elec       q    Type
DOCKED: USER                           _______ _______ _______ _____ _____    ______ ____
DOCKED: ROOT
DOCKED: ATOM      1  C   UNL     1      27.146 -14.921  -0.322 -0.32 -0.00    +0.000 C 
DOCKED: ENDROOT
DOCKED: BRANCH   1   3
DOCKED: ATOM      2  O   UNL     1      26.064 -13.365   1.126 -0.41 -0.00    +0.000 OA
DOCKED: ATOM      3  C   UNL     1      26.996 -14.203   0.986 -0.24 -0.00    +0.000 C 
DOCKED: ATOM      4  N   UNL     1      27.909 -14.470   2.062 -0.31 -0.00    +0.000 N 
DOCKED: ATOM      5  H   UNL     1      28.524 -15.233   1.967 -1.41 -0.00    +0.000 HD
DOCKED: BRANCH   4   6
DOCKED: ATOM      6  C   UNL     1      27.981 -13.691   3.267 -0.35 -0.00    +0.000 A 
DOCKED: ATOM      7  C   UNL     1      28.235 -14.292   4.515 -0.51 -0.00    +0.000 A 
DOCKED: ATOM      8  C   UNL     1      28.280 -13.513   5.675 -0.40 -0.00    +0.000 A 
DOCKED: ATOM      9  C   UNL     1      28.058 -12.135   5.605 -0.38 +0.00    +0.000 A 
DOCKED: ATOM     10  C   UNL     1      27.781 -11.534   4.374 -0.31 +0.00    +0.000 A 
DOCKED: ATOM     11  C   UNL     1      27.735 -12.310   3.212 -0.26 -0.00    +0.000 A 
DOCKED: ENDBRANCH   4   6
DOCKED: ENDBRANCH   1   3
DOCKED: BRANCH   1  12
DOCKED: ATOM     12  C   UNL     1      26.781 -16.400  -0.163 -0.41 -0.00    +0.000 C 
DOCKED: BRANCH  12  13
DOCKED: ATOM     13  C   UNL     1      25.372 -16.679  -0.706 -0.56 -0.00    +0.000 C 
DOCKED: BRANCH  13  14
DOCKED: ATOM     14  C   UNL     1      25.280 -18.019  -1.451 -0.48 -0.00    +0.000 C 
DOCKED: BRANCH  14  15
DOCKED: ATOM     15  C   UNL     1      24.000 -18.801  -1.110 -0.73 -0.00    +0.000 C 
DOCKED: BRANCH  15  16
DOCKED: ATOM     16  C   UNL     1      22.967 -17.932  -0.380 -0.81 -0.00    +0.000 C 
DOCKED: BRANCH  16  17
DOCKED: ATOM     17  C   UNL     1      21.576 -18.176  -0.889 -0.75 -0.00    +0.000 C 
DOCKED: ATOM     18  N   UNL     1      21.125 -19.507  -1.154 -0.77 -0.00    +0.000 N 
DOCKED: ATOM     19  O   UNL     1      20.794 -17.203  -1.055 -1.81 -0.00    +0.000 OA
DOCKED: ATOM     20  H   UNL     1      21.742 -20.264  -1.034 -0.17 -0.00    +0.000 HD
DOCKED: BRANCH  18  21
DOCKED: ATOM     21  O   UNL     1      19.855 -19.735  -1.568 -1.74 -0.00    +0.000 OA
DOCKED: ATOM     22  H   UNL     1      19.360 -18.901  -1.565 -0.38 -0.00    +0.000 HD
DOCKED: ENDBRANCH  18  21
DOCKED: ENDBRANCH  16  17
DOCKED: ENDBRANCH  15  16
DOCKED: ENDBRANCH  14  15
DOCKED: ENDBRANCH  13  14
DOCKED: ENDBRANCH  12  13
DOCKED: ENDBRANCH   1  12
DOCKED: TORSDOF 9
DOCKED: TER
DOCKED: ENDMDL
________________________________________________________________________________


	BEGINNING GENETIC ALGORITHM DOCKING 59 of 100
Run: 59 Seed: 176907313 685421691 [ Run 59 of 100 GA/GALS ]
Beginning LAMARCKIAN GENETIC ALGORITHM (LGA), with a maximum of 2500000 energy evaluations.

Final-Value: -14.851


	FINAL GENETIC ALGORITHM DOCKED STATE
	_______________________________________________


Detailed state:  trans 26.184 -16.968 1.296 quatxyzw 0.315299 -0.441370 0.396165 0.740832 center 0.056 -0.347 0.144 ntor 9 12.6910 -178.8812 -180.0000 82.6552 -175.3668 83.1787 156.5577 -87.2609 -91.7392
State:	 26.184 -16.968   1.296   0.469 -0.657  0.590 84.395     12.69 -178.88 -180.00   82.66 -175.37   83.18  156.56  -87.26  -91.74

DOCKED: MODEL       59
DOCKED: USER    Run = 59
DOCKED: USER    DPF = ligand_dock.biased.dpf
DOCKED: USER  
DOCKED: USER    Estimated Free Energy of Binding    =  -10.89 kcal/mol  [=(1)+(2)+(3)-(4)]
DOCKED: USER    Estimated Inhibition Constant, Ki   =   10.45 nM (nanomolar)  [Temperature = 298.15 K]
DOCKED: USER    
DOCKED: USER    (1) Final Intermolecular Energy     =  -13.57 kcal/mol
DOCKED: USER        vdW + Hbond + desolv Energy     =  -13.57 kcal/mol
DOCKED: USER        Electrostatic Energy            =   +0.00 kcal/mol
DOCKED: USER    (2) Final Total Internal Energy     =   -1.28 kcal/mol
DOCKED: USER    (3) Torsional Free Energy           =   +2.68 kcal/mol
DOCKED: USER    (4) Unbound System's Energy  [=(2)] =   -1.28 kcal/mol
DOCKED: USER    
DOCKED: USER    
DOCKED: USER    NEWDPF move ligand.pdbqt
DOCKED: USER    NEWDPF about 0.056000 -0.347000 0.144000
DOCKED: USER    NEWDPF tran0 26.183826 -16.968261 1.296365
DOCKED: USER    NEWDPF quaternion0 0.315299 -0.441370 0.396165 0.740832
DOCKED: USER    NEWDPF axisangle0 0.469411 -0.657103 0.589804 84.395299
DOCKED: USER    NEWDPF quat0 0.469411 -0.657103 0.589804 84.395299
DOCKED: USER    NEWDPF dihe0 12.69 -178.88 -180.00 82.66 -175.37 83.18 156.56 -87.26 -91.74 
DOCKED: USER  keepresnum = 1 
DOCKED: USER  
DOCKED: REMARK  Name = 
DOCKED: REMARK  9 active torsions:
DOCKED: REMARK  status: ('A' for Active; 'I' for Inactive)
DOCKED: REMARK    1  A    between atoms: C_2  and  C_10
DOCKED: REMARK    2  A    between atoms: N_3  and  C_4
DOCKED: REMARK    3  A    between atoms: C_10  and  C_11
DOCKED: REMARK    4  A    between atoms: C_11  and  C_12
DOCKED: REMARK    5  A    between atoms: C_12  and  C_13
DOCKED: REMARK    6  A    between atoms: C_13  and  C_14
DOCKED: REMARK    7  A    between atoms: C_14  and  C_15
DOCKED: REMARK    8  A    between atoms: C_15  and  C_16
DOCKED: REMARK    9  A    between atoms: N_17  and  O_18
DOCKED: REMARK                            x       y       z     vdW  Elec       q    Type
DOCKED: REMARK                         _______ _______ _______ _____ _____    ______ ____
DOCKED: USER                              x       y       z     vdW  Elec       q    Type
DOCKED: USER                           _______ _______ _______ _____ _____    ______ ____
DOCKED: ROOT
DOCKED: ATOM      1  C   UNL     1      27.465 -15.239  -0.205 -0.31 -0.00    +0.000 C 
DOCKED: ENDROOT
DOCKED: BRANCH   1   3
DOCKED: ATOM      2  O   UNL     1      26.283 -13.581   1.036 -0.37 -0.00    +0.000 OA
DOCKED: ATOM      3  C   UNL     1      27.218 -14.427   1.030 -0.23 -0.00    +0.000 C 
DOCKED: ATOM      4  N   UNL     1      28.045 -14.613   2.190 -0.26 -0.00    +0.000 N 
DOCKED: ATOM      5  H   UNL     1      28.661 -15.381   2.200 -1.62 -0.00    +0.000 HD
DOCKED: BRANCH   4   6
DOCKED: ATOM      6  C   UNL     1      28.028 -13.748   3.337 -0.35 -0.00    +0.000 A 
DOCKED: ATOM      7  C   UNL     1      28.204 -14.252   4.640 -0.51 -0.00    +0.000 A 
DOCKED: ATOM      8  C   UNL     1      28.164 -13.390   5.740 -0.38 -0.00    +0.000 A 
DOCKED: ATOM      9  C   UNL     1      27.933 -12.025   5.554 -0.36 +0.00    +0.000 A 
DOCKED: ATOM     10  C   UNL     1      27.732 -11.519   4.266 -0.29 +0.00    +0.000 A 
DOCKED: ATOM     11  C   UNL     1      27.771 -12.378   3.164 -0.26 -0.00    +0.000 A 
DOCKED: ENDBRANCH   4   6
DOCKED: ENDBRANCH   1   3
DOCKED: BRANCH   1  12
DOCKED: ATOM     12  C   UNL     1      27.023 -16.689   0.013 -0.43 -0.00    +0.000 C 
DOCKED: BRANCH  12  13
DOCKED: ATOM     13  C   UNL     1      25.539 -16.869  -0.338 -0.45 -0.00    +0.000 C 
DOCKED: BRANCH  13  14
DOCKED: ATOM     14  C   UNL     1      25.317 -17.168  -1.828 -0.62 -0.00    +0.000 C 
DOCKED: BRANCH  14  15
DOCKED: ATOM     15  C   UNL     1      24.017 -17.949  -2.089 -0.37 -0.00    +0.000 C 
DOCKED: BRANCH  15  16
DOCKED: ATOM     16  C   UNL     1      23.287 -18.310  -0.789 -0.82 -0.00    +0.000 C 
DOCKED: BRANCH  16  17
DOCKED: ATOM     17  C   UNL     1      21.804 -18.415  -0.994 -0.79 -0.00    +0.000 C 
DOCKED: ATOM     18  N   UNL     1      21.223 -19.628  -1.478 -0.69 -0.00    +0.000 N 
DOCKED: ATOM     19  O   UNL     1      21.065 -17.434  -0.709 -1.99 -0.00    +0.000 OA
DOCKED: ATOM     20  H   UNL     1      21.803 -20.388  -1.711 -0.39 -0.00    +0.000 HD
DOCKED: BRANCH  18  21
DOCKED: ATOM     21  O   UNL     1      19.880 -19.741  -1.620 -1.78 -0.00    +0.000 OA
DOCKED: ATOM     22  H   UNL     1      19.473 -18.864  -1.547 -0.28 -0.00    +0.000 HD
DOCKED: ENDBRANCH  18  21
DOCKED: ENDBRANCH  16  17
DOCKED: ENDBRANCH  15  16
DOCKED: ENDBRANCH  14  15
DOCKED: ENDBRANCH  13  14
DOCKED: ENDBRANCH  12  13
DOCKED: ENDBRANCH   1  12
DOCKED: TORSDOF 9
DOCKED: TER
DOCKED: ENDMDL
________________________________________________________________________________


	BEGINNING GENETIC ALGORITHM DOCKING 60 of 100
Run: 60 Seed: 1683925828 1965608905 [ Run 60 of 100 GA/GALS ]
Beginning LAMARCKIAN GENETIC ALGORITHM (LGA), with a maximum of 2500000 energy evaluations.

Final-Value: -14.595


	FINAL GENETIC ALGORITHM DOCKED STATE
	_______________________________________________


Detailed state:  trans 26.235 -15.377 -1.452 quatxyzw -0.223485 0.039903 0.821377 0.523262 center 0.056 -0.347 0.144 ntor 9 0.7487 -3.6440 -170.9055 148.5831 96.6726 171.3668 -125.7099 18.3103 83.5459
State:	 26.235 -15.377  -1.452  -0.262  0.047  0.964 116.897      0.75   -3.64 -170.91  148.58   96.67  171.37 -125.71   18.31   83.55

DOCKED: MODEL       60
DOCKED: USER    Run = 60
DOCKED: USER    DPF = ligand_dock.biased.dpf
DOCKED: USER  
DOCKED: USER    Estimated Free Energy of Binding    =  -10.69 kcal/mol  [=(1)+(2)+(3)-(4)]
DOCKED: USER    Estimated Inhibition Constant, Ki   =   14.67 nM (nanomolar)  [Temperature = 298.15 K]
DOCKED: USER    
DOCKED: USER    (1) Final Intermolecular Energy     =  -13.37 kcal/mol
DOCKED: USER        vdW + Hbond + desolv Energy     =  -13.37 kcal/mol
DOCKED: USER        Electrostatic Energy            =   +0.00 kcal/mol
DOCKED: USER    (2) Final Total Internal Energy     =   -1.22 kcal/mol
DOCKED: USER    (3) Torsional Free Energy           =   +2.68 kcal/mol
DOCKED: USER    (4) Unbound System's Energy  [=(2)] =   -1.22 kcal/mol
DOCKED: USER    
DOCKED: USER    
DOCKED: USER    NEWDPF move ligand.pdbqt
DOCKED: USER    NEWDPF about 0.056000 -0.347000 0.144000
DOCKED: USER    NEWDPF tran0 26.234884 -15.377357 -1.451741
DOCKED: USER    NEWDPF quaternion0 -0.223485 0.039903 0.821377 0.523262
DOCKED: USER    NEWDPF axisangle0 -0.262253 0.046826 0.963862 116.897382
DOCKED: USER    NEWDPF quat0 -0.262253 0.046826 0.963862 116.897382
DOCKED: USER    NEWDPF dihe0 0.75 -3.64 -170.91 148.58 96.67 171.37 -125.71 18.31 83.55 
DOCKED: USER  keepresnum = 1 
DOCKED: USER  
DOCKED: REMARK  Name = 
DOCKED: REMARK  9 active torsions:
DOCKED: REMARK  status: ('A' for Active; 'I' for Inactive)
DOCKED: REMARK    1  A    between atoms: C_2  and  C_10
DOCKED: REMARK    2  A    between atoms: N_3  and  C_4
DOCKED: REMARK    3  A    between atoms: C_10  and  C_11
DOCKED: REMARK    4  A    between atoms: C_11  and  C_12
DOCKED: REMARK    5  A    between atoms: C_12  and  C_13
DOCKED: REMARK    6  A    between atoms: C_13  and  C_14
DOCKED: REMARK    7  A    between atoms: C_14  and  C_15
DOCKED: REMARK    8  A    between atoms: C_15  and  C_16
DOCKED: REMARK    9  A    between atoms: N_17  and  O_18
DOCKED: REMARK                            x       y       z     vdW  Elec       q    Type
DOCKED: REMARK                         _______ _______ _______ _____ _____    ______ ____
DOCKED: USER                              x       y       z     vdW  Elec       q    Type
DOCKED: USER                           _______ _______ _______ _____ _____    ______ ____
DOCKED: ROOT
DOCKED: ATOM      1  C   UNL     1      28.186 -16.162   0.119 -0.17 -0.00    +0.000 C 
DOCKED: ENDROOT
DOCKED: BRANCH   1   3
DOCKED: ATOM      2  O   UNL     1      27.355 -13.935  -0.073 -0.25 -0.00    +0.000 OA
DOCKED: ATOM      3  C   UNL     1      27.899 -14.798   0.669 -0.28 -0.00    +0.000 C 
DOCKED: ATOM      4  N   UNL     1      28.246 -14.481   2.026 -0.28 -0.00    +0.000 N 
DOCKED: ATOM      5  H   UNL     1      28.528 -15.219   2.615 -1.67 -0.00    +0.000 HD
DOCKED: BRANCH   4   6
DOCKED: ATOM      6  C   UNL     1      28.208 -13.156   2.578 -0.24 -0.00    +0.000 A 
DOCKED: ATOM      7  C   UNL     1      28.648 -12.041   1.839 -0.11 -0.00    +0.000 A 
DOCKED: ATOM      8  C   UNL     1      28.619 -10.763   2.407 -0.11 +0.00    +0.000 A 
DOCKED: ATOM      9  C   UNL     1      28.167 -10.588   3.718 -0.21 +0.00    +0.000 A 
DOCKED: ATOM     10  C   UNL     1      27.751 -11.693   4.466 -0.31 +0.00    +0.000 A 
DOCKED: ATOM     11  C   UNL     1      27.779 -12.971   3.902 -0.36 -0.00    +0.000 A 
DOCKED: ENDBRANCH   4   6
DOCKED: ENDBRANCH   1   3
DOCKED: BRANCH   1  12
DOCKED: ATOM     12  C   UNL     1      27.157 -16.531  -0.955 -0.44 -0.00    +0.000 C 
DOCKED: BRANCH  12  13
DOCKED: ATOM     13  C   UNL     1      26.030 -17.390  -0.362 -0.61 -0.00    +0.000 C 
DOCKED: BRANCH  13  14
DOCKED: ATOM     14  C   UNL     1      25.145 -18.031  -1.442 -0.53 -0.00    +0.000 C 
DOCKED: BRANCH  14  15
DOCKED: ATOM     15  C   UNL     1      23.682 -17.558  -1.367 -0.71 -0.00    +0.000 C 
DOCKED: BRANCH  15  16
DOCKED: ATOM     16  C   UNL     1      22.825 -18.465  -0.476 -0.83 -0.00    +0.000 C 
DOCKED: BRANCH  16  17
DOCKED: ATOM     17  C   UNL     1      21.437 -18.633  -1.025 -0.81 -0.00    +0.000 C 
DOCKED: ATOM     18  N   UNL     1      21.124 -19.736  -1.878 -0.56 -0.00    +0.000 N 
DOCKED: ATOM     19  O   UNL     1      20.538 -17.809  -0.706 -2.25 -0.00    +0.000 OA
DOCKED: ATOM     20  H   UNL     1      21.831 -20.371  -2.135 -0.49 -0.00    +0.000 HD
DOCKED: BRANCH  18  21
DOCKED: ATOM     21  O   UNL     1      19.862 -19.916  -2.336 -1.74 -0.00    +0.000 OA
DOCKED: ATOM     22  H   UNL     1      19.293 -19.204  -2.005 -0.42 -0.00    +0.000 HD
DOCKED: ENDBRANCH  18  21
DOCKED: ENDBRANCH  16  17
DOCKED: ENDBRANCH  15  16
DOCKED: ENDBRANCH  14  15
DOCKED: ENDBRANCH  13  14
DOCKED: ENDBRANCH  12  13
DOCKED: ENDBRANCH   1  12
DOCKED: TORSDOF 9
DOCKED: TER
DOCKED: ENDMDL
________________________________________________________________________________


	BEGINNING GENETIC ALGORITHM DOCKING 61 of 100
Run: 61 Seed: 1855647986 798322411 [ Run 61 of 100 GA/GALS ]
Beginning LAMARCKIAN GENETIC ALGORITHM (LGA), with a maximum of 2500000 energy evaluations.

Final-Value: -13.877


	FINAL GENETIC ALGORITHM DOCKED STATE
	_______________________________________________


Detailed state:  trans 27.228 -16.655 -1.191 quatxyzw -0.289210 0.933140 -0.037988 0.210154 center 0.056 -0.347 0.144 ntor 9 -5.9067 138.1079 95.0782 75.6683 173.1440 82.0418 158.9391 -25.1639 63.4207
State:	 27.228 -16.655  -1.191  -0.296  0.954 -0.039 155.737     -5.91  138.11   95.08   75.67  173.14   82.04  158.94  -25.16   63.42

DOCKED: MODEL       61
DOCKED: USER    Run = 61
DOCKED: USER    DPF = ligand_dock.biased.dpf
DOCKED: USER  
DOCKED: USER    Estimated Free Energy of Binding    =   -9.82 kcal/mol  [=(1)+(2)+(3)-(4)]
DOCKED: USER    Estimated Inhibition Constant, Ki   =   62.89 nM (nanomolar)  [Temperature = 298.15 K]
DOCKED: USER    
DOCKED: USER    (1) Final Intermolecular Energy     =  -12.51 kcal/mol
DOCKED: USER        vdW + Hbond + desolv Energy     =  -12.51 kcal/mol
DOCKED: USER        Electrostatic Energy            =   +0.00 kcal/mol
DOCKED: USER    (2) Final Total Internal Energy     =   -1.37 kcal/mol
DOCKED: USER    (3) Torsional Free Energy           =   +2.68 kcal/mol
DOCKED: USER    (4) Unbound System's Energy  [=(2)] =   -1.37 kcal/mol
DOCKED: USER    
DOCKED: USER    
DOCKED: USER    NEWDPF move ligand.pdbqt
DOCKED: USER    NEWDPF about 0.056000 -0.347000 0.144000
DOCKED: USER    NEWDPF tran0 27.227840 -16.654939 -1.191406
DOCKED: USER    NEWDPF quaternion0 -0.289210 0.933140 -0.037988 0.210154
DOCKED: USER    NEWDPF axisangle0 -0.295816 0.954454 -0.038855 155.737303
DOCKED: USER    NEWDPF quat0 -0.295816 0.954454 -0.038855 155.737303
DOCKED: USER    NEWDPF dihe0 -5.91 138.11 95.08 75.67 173.14 82.04 158.94 -25.16 63.42 
DOCKED: USER  keepresnum = 1 
DOCKED: USER  
DOCKED: REMARK  Name = 
DOCKED: REMARK  9 active torsions:
DOCKED: REMARK  status: ('A' for Active; 'I' for Inactive)
DOCKED: REMARK    1  A    between atoms: C_2  and  C_10
DOCKED: REMARK    2  A    between atoms: N_3  and  C_4
DOCKED: REMARK    3  A    between atoms: C_10  and  C_11
DOCKED: REMARK    4  A    between atoms: C_11  and  C_12
DOCKED: REMARK    5  A    between atoms: C_12  and  C_13
DOCKED: REMARK    6  A    between atoms: C_13  and  C_14
DOCKED: REMARK    7  A    between atoms: C_14  and  C_15
DOCKED: REMARK    8  A    between atoms: C_15  and  C_16
DOCKED: REMARK    9  A    between atoms: N_17  and  O_18
DOCKED: REMARK                            x       y       z     vdW  Elec       q    Type
DOCKED: REMARK                         _______ _______ _______ _____ _____    ______ ____
DOCKED: USER                              x       y       z     vdW  Elec       q    Type
DOCKED: USER                           _______ _______ _______ _____ _____    ______ ____
DOCKED: ROOT
DOCKED: ATOM      1  C   UNL     1      25.963 -14.485  -1.953 -0.34 -0.00    +0.000 C 
DOCKED: ENDROOT
DOCKED: BRANCH   1   3
DOCKED: ATOM      2  O   UNL     1      28.135 -13.725  -2.576 -0.14 -0.00    +0.000 OA
DOCKED: ATOM      3  C   UNL     1      27.154 -14.463  -2.862 -0.29 -0.00    +0.000 C 
DOCKED: ATOM      4  N   UNL     1      27.169 -15.274  -4.048 -0.39 -0.00    +0.000 N 
DOCKED: ATOM      5  H   UNL     1      26.456 -15.944  -4.159 -0.03 -0.00    +0.000 HD
DOCKED: BRANCH   4   6
DOCKED: ATOM      6  C   UNL     1      28.159 -15.166  -5.083 -0.36 -0.00    +0.000 A 
DOCKED: ATOM      7  C   UNL     1      29.226 -16.081  -5.177 -0.30 -0.00    +0.000 A 
DOCKED: ATOM      8  C   UNL     1      30.187 -15.941  -6.183 -0.29 -0.00    +0.000 A 
DOCKED: ATOM      9  C   UNL     1      30.103 -14.883  -7.092 -0.28 -0.00    +0.000 A 
DOCKED: ATOM     10  C   UNL     1      29.062 -13.957  -6.991 -0.30 -0.00    +0.000 A 
DOCKED: ATOM     11  C   UNL     1      28.100 -14.092  -5.986 -0.30 -0.00    +0.000 A 
DOCKED: ENDBRANCH   4   6
DOCKED: ENDBRANCH   1   3
DOCKED: BRANCH   1  12
DOCKED: ATOM     12  C   UNL     1      25.937 -15.784  -1.139 -0.47 -0.00    +0.000 C 
DOCKED: BRANCH  12  13
DOCKED: ATOM     13  C   UNL     1      24.691 -16.617  -1.475 -0.62 -0.00    +0.000 C 
DOCKED: BRANCH  13  14
DOCKED: ATOM     14  C   UNL     1      24.939 -18.127  -1.348 -0.59 -0.00    +0.000 C 
DOCKED: BRANCH  14  15
DOCKED: ATOM     15  C   UNL     1      23.656 -18.913  -1.023 -0.79 -0.00    +0.000 C 
DOCKED: BRANCH  15  16
DOCKED: ATOM     16  C   UNL     1      22.518 -17.996  -0.555 -0.83 -0.00    +0.000 C 
DOCKED: BRANCH  16  17
DOCKED: ATOM     17  C   UNL     1      21.182 -18.477  -1.042 -0.76 -0.00    +0.000 C 
DOCKED: ATOM     18  N   UNL     1      21.085 -19.649  -1.854 -0.61 -0.00    +0.000 N 
DOCKED: ATOM     19  O   UNL     1      20.137 -17.857  -0.706 -2.09 +0.00    +0.000 OA
DOCKED: ATOM     20  H   UNL     1      21.904 -20.124  -2.125 -0.55 -0.00    +0.000 HD
DOCKED: BRANCH  18  21
DOCKED: ATOM     21  O   UNL     1      19.877 -20.112  -2.256 -1.76 -0.00    +0.000 OA
DOCKED: ATOM     22  H   UNL     1      19.176 -19.593  -1.833 -0.45 -0.00    +0.000 HD
DOCKED: ENDBRANCH  18  21
DOCKED: ENDBRANCH  16  17
DOCKED: ENDBRANCH  15  16
DOCKED: ENDBRANCH  14  15
DOCKED: ENDBRANCH  13  14
DOCKED: ENDBRANCH  12  13
DOCKED: ENDBRANCH   1  12
DOCKED: TORSDOF 9
DOCKED: TER
DOCKED: ENDMDL
________________________________________________________________________________


	BEGINNING GENETIC ALGORITHM DOCKING 62 of 100
Run: 62 Seed: 542415894 297921009 [ Run 62 of 100 GA/GALS ]
Beginning LAMARCKIAN GENETIC ALGORITHM (LGA), with a maximum of 2500000 energy evaluations.

Final-Value: -12.569


	FINAL GENETIC ALGORITHM DOCKED STATE
	_______________________________________________


Detailed state:  trans 24.121 -19.388 -2.514 quatxyzw 0.114455 -0.883864 -0.450421 -0.052959 center 0.056 -0.347 0.144 ntor 9 4.3980 -172.1559 157.1887 -132.7802 -35.4962 32.2935 -176.6456 -82.5829 -28.0812
State:	 24.121 -19.388  -2.514   0.115 -0.885 -0.451 -173.929      4.40 -172.16  157.19 -132.78  -35.50   32.29 -176.65  -82.58  -28.08

DOCKED: MODEL       62
DOCKED: USER    Run = 62
DOCKED: USER    DPF = ligand_dock.biased.dpf
DOCKED: USER  
DOCKED: USER    Estimated Free Energy of Binding    =   -8.71 kcal/mol  [=(1)+(2)+(3)-(4)]
DOCKED: USER    Estimated Inhibition Constant, Ki   =  410.53 nM (nanomolar)  [Temperature = 298.15 K]
DOCKED: USER    
DOCKED: USER    (1) Final Intermolecular Energy     =  -11.40 kcal/mol
DOCKED: USER        vdW + Hbond + desolv Energy     =  -11.40 kcal/mol
DOCKED: USER        Electrostatic Energy            =   +0.00 kcal/mol
DOCKED: USER    (2) Final Total Internal Energy     =   -1.17 kcal/mol
DOCKED: USER    (3) Torsional Free Energy           =   +2.68 kcal/mol
DOCKED: USER    (4) Unbound System's Energy  [=(2)] =   -1.17 kcal/mol
DOCKED: USER    
DOCKED: USER    
DOCKED: USER    NEWDPF move ligand.pdbqt
DOCKED: USER    NEWDPF about 0.056000 -0.347000 0.144000
DOCKED: USER    NEWDPF tran0 24.120722 -19.387752 -2.513981
DOCKED: USER    NEWDPF quaternion0 0.114455 -0.883864 -0.450421 -0.052959
DOCKED: USER    NEWDPF axisangle0 0.114615 -0.885107 -0.451054 -173.928517
DOCKED: USER    NEWDPF quat0 0.114615 -0.885107 -0.451054 -173.928517
DOCKED: USER    NEWDPF dihe0 4.40 -172.16 157.19 -132.78 -35.50 32.29 -176.65 -82.58 -28.08 
DOCKED: USER  keepresnum = 1 
DOCKED: USER  
DOCKED: REMARK  Name = 
DOCKED: REMARK  9 active torsions:
DOCKED: REMARK  status: ('A' for Active; 'I' for Inactive)
DOCKED: REMARK    1  A    between atoms: C_2  and  C_10
DOCKED: REMARK    2  A    between atoms: N_3  and  C_4
DOCKED: REMARK    3  A    between atoms: C_10  and  C_11
DOCKED: REMARK    4  A    between atoms: C_11  and  C_12
DOCKED: REMARK    5  A    between atoms: C_12  and  C_13
DOCKED: REMARK    6  A    between atoms: C_13  and  C_14
DOCKED: REMARK    7  A    between atoms: C_14  and  C_15
DOCKED: REMARK    8  A    between atoms: C_15  and  C_16
DOCKED: REMARK    9  A    between atoms: N_17  and  O_18
DOCKED: REMARK                            x       y       z     vdW  Elec       q    Type
DOCKED: REMARK                         _______ _______ _______ _____ _____    ______ ____
DOCKED: USER                              x       y       z     vdW  Elec       q    Type
DOCKED: USER                           _______ _______ _______ _____ _____    ______ ____
DOCKED: ROOT
DOCKED: ATOM      1  C   UNL     1      24.087 -17.277  -0.954 -0.72 -0.00    +0.000 C 
DOCKED: ENDROOT
DOCKED: BRANCH   1   3
DOCKED: ATOM      2  O   UNL     1      26.374 -17.739  -1.448 -0.55 -0.00    +0.000 OA
DOCKED: ATOM      3  C   UNL     1      25.353 -17.052  -1.724 -0.62 -0.00    +0.000 C 
DOCKED: ATOM      4  N   UNL     1      25.398 -16.059  -2.761 -0.52 -0.00    +0.000 N 
DOCKED: ATOM      5  H   UNL     1      24.548 -15.651  -3.047 -0.03 -0.00    +0.000 HD
DOCKED: BRANCH   4   6
DOCKED: ATOM      6  C   UNL     1      26.605 -15.622  -3.405 -0.41 -0.00    +0.000 A 
DOCKED: ATOM      7  C   UNL     1      26.601 -15.156  -4.733 -0.49 -0.00    +0.000 A 
DOCKED: ATOM      8  C   UNL     1      27.794 -14.755  -5.343 -0.38 -0.00    +0.000 A 
DOCKED: ATOM      9  C   UNL     1      29.000 -14.831  -4.642 -0.21 -0.00    +0.000 A 
DOCKED: ATOM     10  C   UNL     1      29.017 -15.316  -3.332 -0.17 -0.00    +0.000 A 
DOCKED: ATOM     11  C   UNL     1      27.827 -15.718  -2.719 -0.26 -0.00    +0.000 A 
DOCKED: ENDBRANCH   4   6
DOCKED: ENDBRANCH   1   3
DOCKED: BRANCH   1  12
DOCKED: ATOM     12  C   UNL     1      23.337 -18.493  -1.507 -0.75 -0.00    +0.000 C 
DOCKED: BRANCH  12  13
DOCKED: ATOM     13  C   UNL     1      22.496 -19.165  -0.411 -0.74 -0.00    +0.000 C 
DOCKED: BRANCH  13  14
DOCKED: ATOM     14  C   UNL     1      21.063 -18.615  -0.346 -0.73 -0.00    +0.000 C 
DOCKED: BRANCH  14  15
DOCKED: ATOM     15  C   UNL     1      20.034 -19.568  -0.979 -0.88 -0.00    +0.000 C 
DOCKED: BRANCH  15  16
DOCKED: ATOM     16  C   UNL     1      18.761 -19.691  -0.132 -0.68 -0.00    +0.000 C 
DOCKED: BRANCH  16  17
DOCKED: ATOM     17  C   UNL     1      19.040 -20.316   1.204 -0.76 -0.00    +0.000 C 
DOCKED: ATOM     18  N   UNL     1      19.932 -19.686   2.127 -0.68 -0.00    +0.000 N 
DOCKED: ATOM     19  O   UNL     1      18.462 -21.389   1.523 -0.70 -0.00    +0.000 OA
DOCKED: ATOM     20  H   UNL     1      20.391 -18.853   1.870 -0.38 -0.00    +0.000 HD
DOCKED: BRANCH  18  21
DOCKED: ATOM     21  O   UNL     1      20.150 -20.222   3.351 -0.65 -0.00    +0.000 OA
DOCKED: ATOM     22  H   UNL     1      19.682 -21.068   3.420 -0.13 -0.00    +0.000 HD
DOCKED: ENDBRANCH  18  21
DOCKED: ENDBRANCH  16  17
DOCKED: ENDBRANCH  15  16
DOCKED: ENDBRANCH  14  15
DOCKED: ENDBRANCH  13  14
DOCKED: ENDBRANCH  12  13
DOCKED: ENDBRANCH   1  12
DOCKED: TORSDOF 9
DOCKED: TER
DOCKED: ENDMDL
________________________________________________________________________________


	BEGINNING GENETIC ALGORITHM DOCKING 63 of 100
Run: 63 Seed: 1751411084 447840527 [ Run 63 of 100 GA/GALS ]
Beginning LAMARCKIAN GENETIC ALGORITHM (LGA), with a maximum of 2500000 energy evaluations.

Final-Value: -13.846


	FINAL GENETIC ALGORITHM DOCKED STATE
	_______________________________________________


Detailed state:  trans 26.598 -17.653 -3.098 quatxyzw 0.181200 -0.915166 -0.108206 -0.343408 center 0.056 -0.347 0.144 ntor 9 165.8931 -50.3410 -23.2207 148.7568 -122.5009 164.0383 -14.8859 26.6330 3.3355
State:	 26.598 -17.653  -3.098   0.193 -0.974 -0.115 -139.831    165.89  -50.34  -23.22  148.76 -122.50  164.04  -14.89   26.63    3.34

DOCKED: MODEL       63
DOCKED: USER    Run = 63
DOCKED: USER    DPF = ligand_dock.biased.dpf
DOCKED: USER  
DOCKED: USER    Estimated Free Energy of Binding    =  -10.36 kcal/mol  [=(1)+(2)+(3)-(4)]
DOCKED: USER    Estimated Inhibition Constant, Ki   =   25.34 nM (nanomolar)  [Temperature = 298.15 K]
DOCKED: USER    
DOCKED: USER    (1) Final Intermolecular Energy     =  -13.05 kcal/mol
DOCKED: USER        vdW + Hbond + desolv Energy     =  -13.05 kcal/mol
DOCKED: USER        Electrostatic Energy            =   +0.00 kcal/mol
DOCKED: USER    (2) Final Total Internal Energy     =   -0.80 kcal/mol
DOCKED: USER    (3) Torsional Free Energy           =   +2.68 kcal/mol
DOCKED: USER    (4) Unbound System's Energy  [=(2)] =   -0.80 kcal/mol
DOCKED: USER    
DOCKED: USER    
DOCKED: USER    NEWDPF move ligand.pdbqt
DOCKED: USER    NEWDPF about 0.056000 -0.347000 0.144000
DOCKED: USER    NEWDPF tran0 26.597575 -17.653246 -3.097651
DOCKED: USER    NEWDPF quaternion0 0.181200 -0.915166 -0.108206 -0.343408
DOCKED: USER    NEWDPF axisangle0 0.192933 -0.974424 -0.115212 -139.830732
DOCKED: USER    NEWDPF quat0 0.192933 -0.974424 -0.115212 -139.830732
DOCKED: USER    NEWDPF dihe0 165.89 -50.34 -23.22 148.76 -122.50 164.04 -14.89 26.63 3.34 
DOCKED: USER  keepresnum = 1 
DOCKED: USER  
DOCKED: REMARK  Name = 
DOCKED: REMARK  9 active torsions:
DOCKED: REMARK  status: ('A' for Active; 'I' for Inactive)
DOCKED: REMARK    1  A    between atoms: C_2  and  C_10
DOCKED: REMARK    2  A    between atoms: N_3  and  C_4
DOCKED: REMARK    3  A    between atoms: C_10  and  C_11
DOCKED: REMARK    4  A    between atoms: C_11  and  C_12
DOCKED: REMARK    5  A    between atoms: C_12  and  C_13
DOCKED: REMARK    6  A    between atoms: C_13  and  C_14
DOCKED: REMARK    7  A    between atoms: C_14  and  C_15
DOCKED: REMARK    8  A    between atoms: C_15  and  C_16
DOCKED: REMARK    9  A    between atoms: N_17  and  O_18
DOCKED: REMARK                            x       y       z     vdW  Elec       q    Type
DOCKED: REMARK                         _______ _______ _______ _____ _____    ______ ____
DOCKED: USER                              x       y       z     vdW  Elec       q    Type
DOCKED: USER                           _______ _______ _______ _____ _____    ______ ____
DOCKED: ROOT
DOCKED: ATOM      1  C   UNL     1      25.823 -15.146  -3.154 -0.53 -0.00    +0.000 C 
DOCKED: ENDROOT
DOCKED: BRANCH   1   3
DOCKED: ATOM      2  O   UNL     1      26.086 -15.611  -5.478 -1.16 +0.00    +0.000 OA
DOCKED: ATOM      3  C   UNL     1      26.637 -15.229  -4.410 -0.54 -0.00    +0.000 C 
DOCKED: ATOM      4  N   UNL     1      28.030 -14.880  -4.389 -0.29 -0.00    +0.000 N 
DOCKED: ATOM      5  H   UNL     1      28.386 -14.446  -3.579 +0.01 -0.00    +0.000 HD
DOCKED: BRANCH   4   6
DOCKED: ATOM      6  C   UNL     1      28.937 -15.125  -5.476 -0.31 -0.00    +0.000 A 
DOCKED: ATOM      7  C   UNL     1      29.619 -16.351  -5.600 -0.31 -0.00    +0.000 A 
DOCKED: ATOM      8  C   UNL     1      30.512 -16.556  -6.657 -0.30 -0.00    +0.000 A 
DOCKED: ATOM      9  C   UNL     1      30.742 -15.540  -7.588 -0.23 -0.00    +0.000 A 
DOCKED: ATOM     10  C   UNL     1      30.088 -14.312  -7.458 -0.23 -0.00    +0.000 A 
DOCKED: ATOM     11  C   UNL     1      29.196 -14.103  -6.403 -0.28 -0.00    +0.000 A 
DOCKED: ENDBRANCH   4   6
DOCKED: ENDBRANCH   1   3
DOCKED: BRANCH   1  12
DOCKED: ATOM     12  C   UNL     1      25.683 -16.533  -2.517 -0.52 -0.00    +0.000 C 
DOCKED: BRANCH  12  13
DOCKED: ATOM     13  C   UNL     1      24.789 -16.476  -1.270 -0.59 -0.00    +0.000 C 
DOCKED: BRANCH  13  14
DOCKED: ATOM     14  C   UNL     1      25.011 -17.670  -0.329 -0.67 -0.00    +0.000 C 
DOCKED: BRANCH  14  15
DOCKED: ATOM     15  C   UNL     1      23.709 -18.431  -0.021 -0.69 -0.00    +0.000 C 
DOCKED: BRANCH  15  16
DOCKED: ATOM     16  C   UNL     1      22.925 -18.778  -1.293 -0.79 -0.00    +0.000 C 
DOCKED: BRANCH  16  17
DOCKED: ATOM     17  C   UNL     1      21.443 -18.662  -1.082 -0.80 -0.00    +0.000 C 
DOCKED: ATOM     18  N   UNL     1      20.597 -19.802  -1.243 -0.80 -0.00    +0.000 N 
DOCKED: ATOM     19  O   UNL     1      20.949 -17.557  -0.731 -2.09 -0.00    +0.000 OA
DOCKED: ATOM     20  H   UNL     1      20.985 -20.662  -1.528 -0.23 -0.00    +0.000 HD
DOCKED: BRANCH  18  21
DOCKED: ATOM     21  O   UNL     1      19.266 -19.713  -1.008 -1.20 -0.00    +0.000 OA
DOCKED: ATOM     22  H   UNL     1      18.821 -20.493  -1.372 -0.51 -0.00    +0.000 HD
DOCKED: ENDBRANCH  18  21
DOCKED: ENDBRANCH  16  17
DOCKED: ENDBRANCH  15  16
DOCKED: ENDBRANCH  14  15
DOCKED: ENDBRANCH  13  14
DOCKED: ENDBRANCH  12  13
DOCKED: ENDBRANCH   1  12
DOCKED: TORSDOF 9
DOCKED: TER
DOCKED: ENDMDL
________________________________________________________________________________


	BEGINNING GENETIC ALGORITHM DOCKING 64 of 100
Run: 64 Seed: 2081150409 870251696 [ Run 64 of 100 GA/GALS ]
Beginning LAMARCKIAN GENETIC ALGORITHM (LGA), with a maximum of 2500000 energy evaluations.

Final-Value: -13.235


	FINAL GENETIC ALGORITHM DOCKED STATE
	_______________________________________________


Detailed state:  trans 27.305 -16.002 -1.587 quatxyzw 0.331250 -0.857987 0.356854 -0.163667 center 0.056 -0.347 0.144 ntor 9 4.3203 -66.5713 -150.4500 64.1401 20.7326 98.1454 -129.5382 40.4550 71.4922
State:	 27.305 -16.002  -1.587   0.336 -0.870  0.362 -161.160      4.32  -66.57 -150.45   64.14   20.73   98.15 -129.54   40.45   71.49

DOCKED: MODEL       64
DOCKED: USER    Run = 64
DOCKED: USER    DPF = ligand_dock.biased.dpf
DOCKED: USER  
DOCKED: USER    Estimated Free Energy of Binding    =   -9.36 kcal/mol  [=(1)+(2)+(3)-(4)]
DOCKED: USER    Estimated Inhibition Constant, Ki   =  137.27 nM (nanomolar)  [Temperature = 298.15 K]
DOCKED: USER    
DOCKED: USER    (1) Final Intermolecular Energy     =  -12.05 kcal/mol
DOCKED: USER        vdW + Hbond + desolv Energy     =  -12.05 kcal/mol
DOCKED: USER        Electrostatic Energy            =   +0.00 kcal/mol
DOCKED: USER    (2) Final Total Internal Energy     =   -1.19 kcal/mol
DOCKED: USER    (3) Torsional Free Energy           =   +2.68 kcal/mol
DOCKED: USER    (4) Unbound System's Energy  [=(2)] =   -1.19 kcal/mol
DOCKED: USER    
DOCKED: USER    
DOCKED: USER    NEWDPF move ligand.pdbqt
DOCKED: USER    NEWDPF about 0.056000 -0.347000 0.144000
DOCKED: USER    NEWDPF tran0 27.305411 -16.001802 -1.586996
DOCKED: USER    NEWDPF quaternion0 0.331250 -0.857987 0.356854 -0.163667
DOCKED: USER    NEWDPF axisangle0 0.335778 -0.869714 0.361732 -161.160338
DOCKED: USER    NEWDPF quat0 0.335778 -0.869714 0.361732 -161.160338
DOCKED: USER    NEWDPF dihe0 4.32 -66.57 -150.45 64.14 20.73 98.15 -129.54 40.45 71.49 
DOCKED: USER  keepresnum = 1 
DOCKED: USER  
DOCKED: REMARK  Name = 
DOCKED: REMARK  9 active torsions:
DOCKED: REMARK  status: ('A' for Active; 'I' for Inactive)
DOCKED: REMARK    1  A    between atoms: C_2  and  C_10
DOCKED: REMARK    2  A    between atoms: N_3  and  C_4
DOCKED: REMARK    3  A    between atoms: C_10  and  C_11
DOCKED: REMARK    4  A    between atoms: C_11  and  C_12
DOCKED: REMARK    5  A    between atoms: C_12  and  C_13
DOCKED: REMARK    6  A    between atoms: C_13  and  C_14
DOCKED: REMARK    7  A    between atoms: C_14  and  C_15
DOCKED: REMARK    8  A    between atoms: C_15  and  C_16
DOCKED: REMARK    9  A    between atoms: N_17  and  O_18
DOCKED: REMARK                            x       y       z     vdW  Elec       q    Type
DOCKED: REMARK                         _______ _______ _______ _____ _____    ______ ____
DOCKED: USER                              x       y       z     vdW  Elec       q    Type
DOCKED: USER                           _______ _______ _______ _____ _____    ______ ____
DOCKED: ROOT
DOCKED: ATOM      1  C   UNL     1      25.954 -15.011  -3.607 -0.55 -0.00    +0.000 C 
DOCKED: ENDROOT
DOCKED: BRANCH   1   3
DOCKED: ATOM      2  O   UNL     1      28.331 -14.990  -3.410 -0.22 -0.00    +0.000 OA
DOCKED: ATOM      3  C   UNL     1      27.337 -15.072  -4.182 -0.41 -0.00    +0.000 C 
DOCKED: ATOM      4  N   UNL     1      27.521 -15.219  -5.599 -0.46 +0.00    +0.000 N 
DOCKED: ATOM      5  H   UNL     1      26.730 -15.430  -6.148 -0.07 +0.00    +0.000 HD
DOCKED: BRANCH   4   6
DOCKED: ATOM      6  C   UNL     1      28.786 -15.077  -6.265 -0.34 -0.00    +0.000 A 
DOCKED: ATOM      7  C   UNL     1      29.104 -13.916  -6.995 -0.30 -0.00    +0.000 A 
DOCKED: ATOM      8  C   UNL     1      30.335 -13.812  -7.650 -0.16 -0.00    +0.000 A 
DOCKED: ATOM      9  C   UNL     1      31.250 -14.866  -7.596 -0.19 -0.00    +0.000 A 
DOCKED: ATOM     10  C   UNL     1      30.932 -16.032  -6.895 -0.25 -0.00    +0.000 A 
DOCKED: ATOM     11  C   UNL     1      29.703 -16.140  -6.239 -0.31 -0.00    +0.000 A 
DOCKED: ENDBRANCH   4   6
DOCKED: ENDBRANCH   1   3
DOCKED: BRANCH   1  12
DOCKED: ATOM     12  C   UNL     1      25.923 -15.670  -2.224 -0.50 -0.00    +0.000 C 
DOCKED: BRANCH  12  13
DOCKED: ATOM     13  C   UNL     1      25.167 -17.006  -2.271 -0.58 -0.00    +0.000 C 
DOCKED: BRANCH  13  14
DOCKED: ATOM     14  C   UNL     1      24.386 -17.289  -0.978 -0.71 -0.00    +0.000 C 
DOCKED: BRANCH  14  15
DOCKED: ATOM     15  C   UNL     1      23.422 -18.480  -1.117 -0.81 -0.00    +0.000 C 
DOCKED: BRANCH  15  16
DOCKED: ATOM     16  C   UNL     1      22.426 -18.558   0.048 -0.78 -0.00    +0.000 C 
DOCKED: BRANCH  16  17
DOCKED: ATOM     17  C   UNL     1      21.020 -18.764  -0.436 -0.80 -0.00    +0.000 C 
DOCKED: ATOM     18  N   UNL     1      20.327 -19.981  -0.150 -0.74 -0.00    +0.000 N 
DOCKED: ATOM     19  O   UNL     1      20.439 -17.845  -1.072 -2.19 -0.00    +0.000 OA
DOCKED: ATOM     20  H   UNL     1      20.788 -20.703   0.337 -0.26 -0.00    +0.000 HD
DOCKED: BRANCH  18  21
DOCKED: ATOM     21  O   UNL     1      19.042 -20.152  -0.544 -0.91 -0.00    +0.000 OA
DOCKED: ATOM     22  H   UNL     1      18.760 -19.386  -1.067 -0.53 -0.00    +0.000 HD
DOCKED: ENDBRANCH  18  21
DOCKED: ENDBRANCH  16  17
DOCKED: ENDBRANCH  15  16
DOCKED: ENDBRANCH  14  15
DOCKED: ENDBRANCH  13  14
DOCKED: ENDBRANCH  12  13
DOCKED: ENDBRANCH   1  12
DOCKED: TORSDOF 9
DOCKED: TER
DOCKED: ENDMDL
________________________________________________________________________________


	BEGINNING GENETIC ALGORITHM DOCKING 65 of 100
Run: 65 Seed: 1196218020 1133905288 [ Run 65 of 100 GA/GALS ]
Beginning LAMARCKIAN GENETIC ALGORITHM (LGA), with a maximum of 2500000 energy evaluations.

Final-Value: -13.613


	FINAL GENETIC ALGORITHM DOCKED STATE
	_______________________________________________


Detailed state:  trans 25.636 -14.477 -1.318 quatxyzw -0.821424 0.181841 -0.377589 -0.386810 center 0.056 -0.347 0.144 ntor 9 178.8834 -167.3601 -86.1658 96.7117 -89.0879 9.4932 176.8956 53.3438 -28.2080
State:	 25.636 -14.477  -1.318  -0.891  0.197 -0.409 -134.488    178.88 -167.36  -86.17   96.71  -89.09    9.49  176.90   53.34  -28.21

DOCKED: MODEL       65
DOCKED: USER    Run = 65
DOCKED: USER    DPF = ligand_dock.biased.dpf
DOCKED: USER  
DOCKED: USER    Estimated Free Energy of Binding    =  -10.21 kcal/mol  [=(1)+(2)+(3)-(4)]
DOCKED: USER    Estimated Inhibition Constant, Ki   =   32.93 nM (nanomolar)  [Temperature = 298.15 K]
DOCKED: USER    
DOCKED: USER    (1) Final Intermolecular Energy     =  -12.89 kcal/mol
DOCKED: USER        vdW + Hbond + desolv Energy     =  -12.89 kcal/mol
DOCKED: USER        Electrostatic Energy            =   +0.00 kcal/mol
DOCKED: USER    (2) Final Total Internal Energy     =   -0.72 kcal/mol
DOCKED: USER    (3) Torsional Free Energy           =   +2.68 kcal/mol
DOCKED: USER    (4) Unbound System's Energy  [=(2)] =   -0.72 kcal/mol
DOCKED: USER    
DOCKED: USER    
DOCKED: USER    NEWDPF move ligand.pdbqt
DOCKED: USER    NEWDPF about 0.056000 -0.347000 0.144000
DOCKED: USER    NEWDPF tran0 25.636157 -14.476518 -1.317837
DOCKED: USER    NEWDPF quaternion0 -0.821424 0.181841 -0.377589 -0.386810
DOCKED: USER    NEWDPF axisangle0 -0.890762 0.197190 -0.409462 -134.487654
DOCKED: USER    NEWDPF quat0 -0.890762 0.197190 -0.409462 -134.487654
DOCKED: USER    NEWDPF dihe0 178.88 -167.36 -86.17 96.71 -89.09 9.49 176.90 53.34 -28.21 
DOCKED: USER  keepresnum = 1 
DOCKED: USER  
DOCKED: REMARK  Name = 
DOCKED: REMARK  9 active torsions:
DOCKED: REMARK  status: ('A' for Active; 'I' for Inactive)
DOCKED: REMARK    1  A    between atoms: C_2  and  C_10
DOCKED: REMARK    2  A    between atoms: N_3  and  C_4
DOCKED: REMARK    3  A    between atoms: C_10  and  C_11
DOCKED: REMARK    4  A    between atoms: C_11  and  C_12
DOCKED: REMARK    5  A    between atoms: C_12  and  C_13
DOCKED: REMARK    6  A    between atoms: C_13  and  C_14
DOCKED: REMARK    7  A    between atoms: C_14  and  C_15
DOCKED: REMARK    8  A    between atoms: C_15  and  C_16
DOCKED: REMARK    9  A    between atoms: N_17  and  O_18
DOCKED: REMARK                            x       y       z     vdW  Elec       q    Type
DOCKED: REMARK                         _______ _______ _______ _____ _____    ______ ____
DOCKED: USER                              x       y       z     vdW  Elec       q    Type
DOCKED: USER                           _______ _______ _______ _____ _____    ______ ____
DOCKED: ROOT
DOCKED: ATOM      1  C   UNL     1      25.854 -15.369  -3.776 -0.59 -0.00    +0.000 C 
DOCKED: ENDROOT
DOCKED: BRANCH   1   3
DOCKED: ATOM      2  O   UNL     1      24.084 -13.776  -3.898 -0.96 -0.00    +0.000 OA
DOCKED: ATOM      3  C   UNL     1      25.322 -13.988  -4.013 -0.50 -0.00    +0.000 C 
DOCKED: ATOM      4  N   UNL     1      26.217 -12.924  -4.371 -0.33 -0.00    +0.000 N 
DOCKED: ATOM      5  H   UNL     1      27.185 -13.092  -4.304 -0.00 -0.00    +0.000 HD
DOCKED: BRANCH   4   6
DOCKED: ATOM      6  C   UNL     1      25.787 -11.629  -4.821 -0.31 -0.00    +0.000 A 
DOCKED: ATOM      7  C   UNL     1      26.608 -10.494  -4.682 -0.16 -0.00    +0.000 A 
DOCKED: ATOM      8  C   UNL     1      26.157  -9.242  -5.111 -0.13 -0.00    +0.000 A 
DOCKED: ATOM      9  C   UNL     1      24.882  -9.107  -5.667 -0.25 -0.00    +0.000 A 
DOCKED: ATOM     10  C   UNL     1      24.051 -10.224  -5.785 -0.35 -0.00    +0.000 A 
DOCKED: ATOM     11  C   UNL     1      24.498 -11.477  -5.357 -0.22 -0.00    +0.000 A 
DOCKED: ENDBRANCH   4   6
DOCKED: ENDBRANCH   1   3
DOCKED: BRANCH   1  12
DOCKED: ATOM     12  C   UNL     1      26.168 -15.572  -2.290 -0.47 -0.00    +0.000 C 
DOCKED: BRANCH  12  13
DOCKED: ATOM     13  C   UNL     1      26.025 -17.049  -1.896 -0.50 -0.00    +0.000 C 
DOCKED: BRANCH  13  14
DOCKED: ATOM     14  C   UNL     1      25.212 -17.241  -0.607 -0.62 -0.00    +0.000 C 
DOCKED: BRANCH  14  15
DOCKED: ATOM     15  C   UNL     1      23.694 -17.168  -0.847 -0.71 -0.00    +0.000 C 
DOCKED: BRANCH  15  16
DOCKED: ATOM     16  C   UNL     1      23.118 -18.507  -1.326 -0.78 -0.00    +0.000 C 
DOCKED: BRANCH  16  17
DOCKED: ATOM     17  C   UNL     1      21.621 -18.540  -1.217 -0.60 -0.00    +0.000 C 
DOCKED: ATOM     18  N   UNL     1      20.888 -19.686  -1.655 -0.74 -0.00    +0.000 N 
DOCKED: ATOM     19  O   UNL     1      21.013 -17.560  -0.709 -2.09 -0.00    +0.000 OA
DOCKED: ATOM     20  H   UNL     1      21.365 -20.445  -2.062 -0.47 -0.00    +0.000 HD
DOCKED: BRANCH  18  21
DOCKED: ATOM     21  O   UNL     1      19.542 -19.738  -1.515 -1.59 -0.00    +0.000 OA
DOCKED: ATOM     22  H   UNL     1      19.212 -20.574  -1.878 -0.54 -0.00    +0.000 HD
DOCKED: ENDBRANCH  18  21
DOCKED: ENDBRANCH  16  17
DOCKED: ENDBRANCH  15  16
DOCKED: ENDBRANCH  14  15
DOCKED: ENDBRANCH  13  14
DOCKED: ENDBRANCH  12  13
DOCKED: ENDBRANCH   1  12
DOCKED: TORSDOF 9
DOCKED: TER
DOCKED: ENDMDL
________________________________________________________________________________


	BEGINNING GENETIC ALGORITHM DOCKING 66 of 100
Run: 66 Seed: 2066168273 237898200 [ Run 66 of 100 GA/GALS ]
Beginning LAMARCKIAN GENETIC ALGORITHM (LGA), with a maximum of 2500000 energy evaluations.

Final-Value: -13.117


	FINAL GENETIC ALGORITHM DOCKED STATE
	_______________________________________________


Detailed state:  trans 26.387 -14.418 -0.240 quatxyzw -0.037955 0.244743 -0.906340 -0.342355 center 0.056 -0.347 0.144 ntor 9 -23.0559 98.4108 172.4160 51.5217 -22.9767 95.1634 156.9202 -5.9613 33.9096
State:	 26.387 -14.418  -0.240  -0.040  0.260 -0.965 -139.959    -23.06   98.41  172.42   51.52  -22.98   95.16  156.92   -5.96   33.91

DOCKED: MODEL       66
DOCKED: USER    Run = 66
DOCKED: USER    DPF = ligand_dock.biased.dpf
DOCKED: USER  
DOCKED: USER    Estimated Free Energy of Binding    =   -9.32 kcal/mol  [=(1)+(2)+(3)-(4)]
DOCKED: USER    Estimated Inhibition Constant, Ki   =  148.23 nM (nanomolar)  [Temperature = 298.15 K]
DOCKED: USER    
DOCKED: USER    (1) Final Intermolecular Energy     =  -12.00 kcal/mol
DOCKED: USER        vdW + Hbond + desolv Energy     =  -12.00 kcal/mol
DOCKED: USER        Electrostatic Energy            =   +0.00 kcal/mol
DOCKED: USER    (2) Final Total Internal Energy     =   -1.12 kcal/mol
DOCKED: USER    (3) Torsional Free Energy           =   +2.68 kcal/mol
DOCKED: USER    (4) Unbound System's Energy  [=(2)] =   -1.12 kcal/mol
DOCKED: USER    
DOCKED: USER    
DOCKED: USER    NEWDPF move ligand.pdbqt
DOCKED: USER    NEWDPF about 0.056000 -0.347000 0.144000
DOCKED: USER    NEWDPF tran0 26.387292 -14.417729 -0.240095
DOCKED: USER    NEWDPF quaternion0 -0.037955 0.244743 -0.906340 -0.342355
DOCKED: USER    NEWDPF axisangle0 -0.040396 0.260484 -0.964633 -139.959103
DOCKED: USER    NEWDPF quat0 -0.040396 0.260484 -0.964633 -139.959103
DOCKED: USER    NEWDPF dihe0 -23.06 98.41 172.42 51.52 -22.98 95.16 156.92 -5.96 33.91 
DOCKED: USER  keepresnum = 1 
DOCKED: USER  
DOCKED: REMARK  Name = 
DOCKED: REMARK  9 active torsions:
DOCKED: REMARK  status: ('A' for Active; 'I' for Inactive)
DOCKED: REMARK    1  A    between atoms: C_2  and  C_10
DOCKED: REMARK    2  A    between atoms: N_3  and  C_4
DOCKED: REMARK    3  A    between atoms: C_10  and  C_11
DOCKED: REMARK    4  A    between atoms: C_11  and  C_12
DOCKED: REMARK    5  A    between atoms: C_12  and  C_13
DOCKED: REMARK    6  A    between atoms: C_13  and  C_14
DOCKED: REMARK    7  A    between atoms: C_14  and  C_15
DOCKED: REMARK    8  A    between atoms: C_15  and  C_16
DOCKED: REMARK    9  A    between atoms: N_17  and  O_18
DOCKED: REMARK                            x       y       z     vdW  Elec       q    Type
DOCKED: REMARK                         _______ _______ _______ _____ _____    ______ ____
DOCKED: USER                              x       y       z     vdW  Elec       q    Type
DOCKED: USER                           _______ _______ _______ _____ _____    ______ ____
DOCKED: ROOT
DOCKED: ATOM      1  C   UNL     1      28.436 -15.994  -0.696 -0.28 -0.00    +0.000 C 
DOCKED: ENDROOT
DOCKED: BRANCH   1   3
DOCKED: ATOM      2  O   UNL     1      29.745 -14.008  -0.520 -0.07 -0.00    +0.000 OA
DOCKED: ATOM      3  C   UNL     1      29.083 -14.893   0.089 -0.18 -0.00    +0.000 C 
DOCKED: ATOM      4  N   UNL     1      28.950 -14.853   1.518 -0.13 -0.00    +0.000 N 
DOCKED: ATOM      5  H   UNL     1      28.306 -15.469   1.940 -1.17 -0.00    +0.000 HD
DOCKED: BRANCH   4   6
DOCKED: ATOM      6  C   UNL     1      29.698 -13.972   2.372 -0.16 -0.00    +0.000 A 
DOCKED: ATOM      7  C   UNL     1      29.589 -12.573   2.259 -0.08 -0.00    +0.000 A 
DOCKED: ATOM      8  C   UNL     1      30.344 -11.739   3.089 -0.05 -0.00    +0.000 A 
DOCKED: ATOM      9  C   UNL     1      31.223 -12.289   4.025 -0.07 -0.00    +0.000 A 
DOCKED: ATOM     10  C   UNL     1      31.356 -13.676   4.127 -0.17 -0.00    +0.000 A 
DOCKED: ATOM     11  C   UNL     1      30.604 -14.514   3.299 -0.23 -0.00    +0.000 A 
DOCKED: ENDBRANCH   4   6
DOCKED: ENDBRANCH   1   3
DOCKED: BRANCH   1  12
DOCKED: ATOM     12  C   UNL     1      26.917 -15.796  -0.739 -0.39 -0.00    +0.000 C 
DOCKED: BRANCH  12  13
DOCKED: ATOM     13  C   UNL     1      26.187 -17.147  -0.744 -0.58 -0.00    +0.000 C 
DOCKED: BRANCH  13  14
DOCKED: ATOM     14  C   UNL     1      24.679 -17.005  -0.491 -0.51 -0.00    +0.000 C 
DOCKED: BRANCH  14  15
DOCKED: ATOM     15  C   UNL     1      23.898 -18.287  -0.829 -0.81 -0.00    +0.000 C 
DOCKED: BRANCH  15  16
DOCKED: ATOM     16  C   UNL     1      22.654 -18.457   0.052 -0.76 -0.00    +0.000 C 
DOCKED: BRANCH  16  17
DOCKED: ATOM     17  C   UNL     1      21.395 -18.502  -0.765 -0.84 -0.00    +0.000 C 
DOCKED: ATOM     18  N   UNL     1      21.042 -19.684  -1.487 -0.74 -0.00    +0.000 N 
DOCKED: ATOM     19  O   UNL     1      20.632 -17.500  -0.789 -2.10 +0.00    +0.000 OA
DOCKED: ATOM     20  H   UNL     1      21.646 -20.462  -1.476 -0.29 -0.00    +0.000 HD
DOCKED: BRANCH  18  21
DOCKED: ATOM     21  O   UNL     1      19.884 -19.745  -2.187 -1.89 -0.00    +0.000 OA
DOCKED: ATOM     22  H   UNL     1      19.256 -19.099  -1.828 -0.48 -0.00    +0.000 HD
DOCKED: ENDBRANCH  18  21
DOCKED: ENDBRANCH  16  17
DOCKED: ENDBRANCH  15  16
DOCKED: ENDBRANCH  14  15
DOCKED: ENDBRANCH  13  14
DOCKED: ENDBRANCH  12  13
DOCKED: ENDBRANCH   1  12
DOCKED: TORSDOF 9
DOCKED: TER
DOCKED: ENDMDL
________________________________________________________________________________


	BEGINNING GENETIC ALGORITHM DOCKING 67 of 100
Run: 67 Seed: 1114857447 1757435927 [ Run 67 of 100 GA/GALS ]
Beginning LAMARCKIAN GENETIC ALGORITHM (LGA), with a maximum of 2500000 energy evaluations.

Final-Value: -14.810


	FINAL GENETIC ALGORITHM DOCKED STATE
	_______________________________________________


Detailed state:  trans 26.157 -14.410 -1.147 quatxyzw -0.307538 -0.187502 0.751594 0.552602 center 0.056 -0.347 0.144 ntor 9 -6.7351 -179.4903 -154.6615 129.5141 96.5388 146.1267 -117.1237 42.8970 116.2259
State:	 26.157 -14.410  -1.147  -0.369 -0.225  0.902 112.909     -6.74 -179.49 -154.66  129.51   96.54  146.13 -117.12   42.90  116.23

DOCKED: MODEL       67
DOCKED: USER    Run = 67
DOCKED: USER    DPF = ligand_dock.biased.dpf
DOCKED: USER  
DOCKED: USER    Estimated Free Energy of Binding    =  -10.92 kcal/mol  [=(1)+(2)+(3)-(4)]
DOCKED: USER    Estimated Inhibition Constant, Ki   =    9.84 nM (nanomolar)  [Temperature = 298.15 K]
DOCKED: USER    
DOCKED: USER    (1) Final Intermolecular Energy     =  -13.61 kcal/mol
DOCKED: USER        vdW + Hbond + desolv Energy     =  -13.61 kcal/mol
DOCKED: USER        Electrostatic Energy            =   +0.00 kcal/mol
DOCKED: USER    (2) Final Total Internal Energy     =   -1.20 kcal/mol
DOCKED: USER    (3) Torsional Free Energy           =   +2.68 kcal/mol
DOCKED: USER    (4) Unbound System's Energy  [=(2)] =   -1.20 kcal/mol
DOCKED: USER    
DOCKED: USER    
DOCKED: USER    NEWDPF move ligand.pdbqt
DOCKED: USER    NEWDPF about 0.056000 -0.347000 0.144000
DOCKED: USER    NEWDPF tran0 26.157303 -14.410448 -1.147315
DOCKED: USER    NEWDPF quaternion0 -0.307538 -0.187502 0.751594 0.552602
DOCKED: USER    NEWDPF axisangle0 -0.368996 -0.224972 0.901792 112.908547
DOCKED: USER    NEWDPF quat0 -0.368996 -0.224972 0.901792 112.908547
DOCKED: USER    NEWDPF dihe0 -6.74 -179.49 -154.66 129.51 96.54 146.13 -117.12 42.90 116.23 
DOCKED: USER  keepresnum = 1 
DOCKED: USER  
DOCKED: REMARK  Name = 
DOCKED: REMARK  9 active torsions:
DOCKED: REMARK  status: ('A' for Active; 'I' for Inactive)
DOCKED: REMARK    1  A    between atoms: C_2  and  C_10
DOCKED: REMARK    2  A    between atoms: N_3  and  C_4
DOCKED: REMARK    3  A    between atoms: C_10  and  C_11
DOCKED: REMARK    4  A    between atoms: C_11  and  C_12
DOCKED: REMARK    5  A    between atoms: C_12  and  C_13
DOCKED: REMARK    6  A    between atoms: C_13  and  C_14
DOCKED: REMARK    7  A    between atoms: C_14  and  C_15
DOCKED: REMARK    8  A    between atoms: C_15  and  C_16
DOCKED: REMARK    9  A    between atoms: N_17  and  O_18
DOCKED: REMARK                            x       y       z     vdW  Elec       q    Type
DOCKED: REMARK                         _______ _______ _______ _____ _____    ______ ____
DOCKED: USER                              x       y       z     vdW  Elec       q    Type
DOCKED: USER                           _______ _______ _______ _____ _____    ______ ____
DOCKED: ROOT
DOCKED: ATOM      1  C   UNL     1      28.402 -15.294  -0.113 -0.25 -0.00    +0.000 C 
DOCKED: ENDROOT
DOCKED: BRANCH   1   3
DOCKED: ATOM      2  O   UNL     1      26.991 -13.568   0.735 -0.31 -0.00    +0.000 OA
DOCKED: ATOM      3  C   UNL     1      27.907 -14.399   0.983 -0.27 -0.00    +0.000 C 
DOCKED: ATOM      4  N   UNL     1      28.477 -14.488   2.298 -0.26 -0.00    +0.000 N 
DOCKED: ATOM      5  H   UNL     1      29.078 -15.245   2.491 -1.97 -0.00    +0.000 HD
DOCKED: BRANCH   4   6
DOCKED: ATOM      6  C   UNL     1      28.226 -13.543   3.350 -0.32 -0.00    +0.000 A 
DOCKED: ATOM      7  C   UNL     1      28.118 -13.951   4.693 -0.50 -0.00    +0.000 A 
DOCKED: ATOM      8  C   UNL     1      27.853 -13.012   5.695 -0.39 -0.00    +0.000 A 
DOCKED: ATOM      9  C   UNL     1      27.679 -11.665   5.367 -0.29 +0.00    +0.000 A 
DOCKED: ATOM     10  C   UNL     1      27.760 -11.256   4.034 -0.29 +0.00    +0.000 A 
DOCKED: ATOM     11  C   UNL     1      28.024 -12.191   3.029 -0.22 -0.00    +0.000 A 
DOCKED: ENDBRANCH   4   6
DOCKED: ENDBRANCH   1   3
DOCKED: BRANCH   1  12
DOCKED: ATOM     12  C   UNL     1      27.350 -15.410  -1.221 -0.31 -0.00    +0.000 C 
DOCKED: BRANCH  12  13
DOCKED: ATOM     13  C   UNL     1      26.075 -16.089  -0.698 -0.46 -0.00    +0.000 C 
DOCKED: BRANCH  13  14
DOCKED: ATOM     14  C   UNL     1      25.426 -17.010  -1.742 -0.61 -0.00    +0.000 C 
DOCKED: BRANCH  14  15
DOCKED: ATOM     15  C   UNL     1      23.888 -16.968  -1.694 -0.40 -0.00    +0.000 C 
DOCKED: BRANCH  15  16
DOCKED: ATOM     16  C   UNL     1      23.308 -18.036  -0.758 -0.81 -0.00    +0.000 C 
DOCKED: BRANCH  16  17
DOCKED: ATOM     17  C   UNL     1      21.854 -18.286  -1.033 -0.76 -0.00    +0.000 C 
DOCKED: ATOM     18  N   UNL     1      21.430 -19.513  -1.631 -0.61 -0.00    +0.000 N 
DOCKED: ATOM     19  O   UNL     1      21.001 -17.418  -0.707 -2.02 -0.00    +0.000 OA
DOCKED: ATOM     20  H   UNL     1      22.100 -20.185  -1.896 -0.47 -0.00    +0.000 HD
DOCKED: BRANCH  18  21
DOCKED: ATOM     21  O   UNL     1      20.114 -19.762  -1.837 -1.85 -0.00    +0.000 OA
DOCKED: ATOM     22  H   UNL     1      19.585 -19.058  -1.430 -0.20 -0.00    +0.000 HD
DOCKED: ENDBRANCH  18  21
DOCKED: ENDBRANCH  16  17
DOCKED: ENDBRANCH  15  16
DOCKED: ENDBRANCH  14  15
DOCKED: ENDBRANCH  13  14
DOCKED: ENDBRANCH  12  13
DOCKED: ENDBRANCH   1  12
DOCKED: TORSDOF 9
DOCKED: TER
DOCKED: ENDMDL
________________________________________________________________________________


	BEGINNING GENETIC ALGORITHM DOCKING 68 of 100
Run: 68 Seed: 1662034031 599304691 [ Run 68 of 100 GA/GALS ]
Beginning LAMARCKIAN GENETIC ALGORITHM (LGA), with a maximum of 2500000 energy evaluations.

Final-Value: -14.580


	FINAL GENETIC ALGORITHM DOCKED STATE
	_______________________________________________


Detailed state:  trans 27.067 -16.274 -1.970 quatxyzw -0.159689 0.893318 -0.250430 0.337294 center 0.056 -0.347 0.144 ntor 9 -43.7333 -95.6530 165.5839 50.7622 53.7076 103.2648 39.7380 18.7552 102.6469
State:	 27.067 -16.274  -1.970  -0.170  0.949 -0.266 140.576    -43.73  -95.65  165.58   50.76   53.71  103.26   39.74   18.76  102.65

DOCKED: MODEL       68
DOCKED: USER    Run = 68
DOCKED: USER    DPF = ligand_dock.biased.dpf
DOCKED: USER  
DOCKED: USER    Estimated Free Energy of Binding    =  -10.79 kcal/mol  [=(1)+(2)+(3)-(4)]
DOCKED: USER    Estimated Inhibition Constant, Ki   =   12.23 nM (nanomolar)  [Temperature = 298.15 K]
DOCKED: USER    
DOCKED: USER    (1) Final Intermolecular Energy     =  -13.48 kcal/mol
DOCKED: USER        vdW + Hbond + desolv Energy     =  -13.48 kcal/mol
DOCKED: USER        Electrostatic Energy            =   +0.00 kcal/mol
DOCKED: USER    (2) Final Total Internal Energy     =   -1.10 kcal/mol
DOCKED: USER    (3) Torsional Free Energy           =   +2.68 kcal/mol
DOCKED: USER    (4) Unbound System's Energy  [=(2)] =   -1.10 kcal/mol
DOCKED: USER    
DOCKED: USER    
DOCKED: USER    NEWDPF move ligand.pdbqt
DOCKED: USER    NEWDPF about 0.056000 -0.347000 0.144000
DOCKED: USER    NEWDPF tran0 27.066693 -16.273962 -1.970301
DOCKED: USER    NEWDPF quaternion0 -0.159689 0.893318 -0.250430 0.337294
DOCKED: USER    NEWDPF axisangle0 -0.169630 0.948925 -0.266019 140.575862
DOCKED: USER    NEWDPF quat0 -0.169630 0.948925 -0.266019 140.575862
DOCKED: USER    NEWDPF dihe0 -43.73 -95.65 165.58 50.76 53.71 103.26 39.74 18.76 102.65 
DOCKED: USER  keepresnum = 1 
DOCKED: USER  
DOCKED: REMARK  Name = 
DOCKED: REMARK  9 active torsions:
DOCKED: REMARK  status: ('A' for Active; 'I' for Inactive)
DOCKED: REMARK    1  A    between atoms: C_2  and  C_10
DOCKED: REMARK    2  A    between atoms: N_3  and  C_4
DOCKED: REMARK    3  A    between atoms: C_10  and  C_11
DOCKED: REMARK    4  A    between atoms: C_11  and  C_12
DOCKED: REMARK    5  A    between atoms: C_12  and  C_13
DOCKED: REMARK    6  A    between atoms: C_13  and  C_14
DOCKED: REMARK    7  A    between atoms: C_14  and  C_15
DOCKED: REMARK    8  A    between atoms: C_15  and  C_16
DOCKED: REMARK    9  A    between atoms: N_17  and  O_18
DOCKED: REMARK                            x       y       z     vdW  Elec       q    Type
DOCKED: REMARK                         _______ _______ _______ _____ _____    ______ ____
DOCKED: USER                              x       y       z     vdW  Elec       q    Type
DOCKED: USER                           _______ _______ _______ _____ _____    ______ ____
DOCKED: ROOT
DOCKED: ATOM      1  C   UNL     1      25.927 -14.597  -3.637 -0.52 -0.00    +0.000 C 
DOCKED: ENDROOT
DOCKED: BRANCH   1   3
DOCKED: ATOM      2  O   UNL     1      26.674 -15.484  -5.720 -1.11 +0.00    +0.000 OA
DOCKED: ATOM      3  C   UNL     1      26.961 -15.228  -4.519 -0.50 -0.00    +0.000 C 
DOCKED: ATOM      4  N   UNL     1      28.261 -15.540  -3.994 -0.29 -0.00    +0.000 N 
DOCKED: ATOM      5  H   UNL     1      28.496 -15.192  -3.103 +0.00 -0.00    +0.000 HD
DOCKED: BRANCH   4   6
DOCKED: ATOM      6  C   UNL     1      29.240 -16.330  -4.688 -0.27 -0.00    +0.000 A 
DOCKED: ATOM      7  C   UNL     1      29.927 -17.378  -4.046 -0.20 -0.00    +0.000 A 
DOCKED: ATOM      8  C   UNL     1      30.889 -18.118  -4.739 -0.23 -0.00    +0.000 A 
DOCKED: ATOM      9  C   UNL     1      31.186 -17.812  -6.070 -0.24 -0.00    +0.000 A 
DOCKED: ATOM     10  C   UNL     1      30.527 -16.758  -6.707 -0.31 -0.00    +0.000 A 
DOCKED: ATOM     11  C   UNL     1      29.564 -16.015  -6.018 -0.31 -0.00    +0.000 A 
DOCKED: ENDBRANCH   4   6
DOCKED: ENDBRANCH   1   3
DOCKED: BRANCH   1  12
DOCKED: ATOM     12  C   UNL     1      25.894 -15.293  -2.272 -0.47 -0.00    +0.000 C 
DOCKED: BRANCH  12  13
DOCKED: ATOM     13  C   UNL     1      25.146 -16.631  -2.356 -0.57 -0.00    +0.000 C 
DOCKED: BRANCH  13  14
DOCKED: ATOM     14  C   UNL     1      24.817 -17.212  -0.973 -0.68 -0.00    +0.000 C 
DOCKED: BRANCH  14  15
DOCKED: ATOM     15  C   UNL     1      23.945 -18.478  -1.053 -0.80 -0.00    +0.000 C 
DOCKED: BRANCH  15  16
DOCKED: ATOM     16  C   UNL     1      22.779 -18.442  -0.057 -0.78 -0.00    +0.000 C 
DOCKED: BRANCH  16  17
DOCKED: ATOM     17  C   UNL     1      21.451 -18.505  -0.753 -0.85 -0.00    +0.000 C 
DOCKED: ATOM     18  N   UNL     1      21.029 -19.707  -1.402 -0.75 -0.00    +0.000 N 
DOCKED: ATOM     19  O   UNL     1      20.692 -17.499  -0.739 -2.09 +0.00    +0.000 OA
DOCKED: ATOM     20  H   UNL     1      21.628 -20.488  -1.421 -0.27 -0.00    +0.000 HD
DOCKED: BRANCH  18  21
DOCKED: ATOM     21  O   UNL     1      19.811 -19.782  -1.991 -1.82 -0.00    +0.000 OA
DOCKED: ATOM     22  H   UNL     1      19.146 -19.381  -1.409 -0.45 -0.00    +0.000 HD
DOCKED: ENDBRANCH  18  21
DOCKED: ENDBRANCH  16  17
DOCKED: ENDBRANCH  15  16
DOCKED: ENDBRANCH  14  15
DOCKED: ENDBRANCH  13  14
DOCKED: ENDBRANCH  12  13
DOCKED: ENDBRANCH   1  12
DOCKED: TORSDOF 9
DOCKED: TER
DOCKED: ENDMDL
________________________________________________________________________________


	BEGINNING GENETIC ALGORITHM DOCKING 69 of 100
Run: 69 Seed: 435378116 196555207 [ Run 69 of 100 GA/GALS ]
Beginning LAMARCKIAN GENETIC ALGORITHM (LGA), with a maximum of 2500000 energy evaluations.

Final-Value: -13.538


	FINAL GENETIC ALGORITHM DOCKED STATE
	_______________________________________________


Detailed state:  trans 26.809 -13.791 -1.219 quatxyzw -0.305547 -0.137427 0.919316 0.206429 center 0.056 -0.347 0.144 ntor 9 -0.7872 -34.2484 -137.6213 127.8954 37.2937 130.4613 132.2841 117.4898 94.3531
State:	 26.809 -13.791  -1.219  -0.312 -0.140  0.940 156.174     -0.79  -34.25 -137.62  127.90   37.29  130.46  132.28  117.49   94.35

DOCKED: MODEL       69
DOCKED: USER    Run = 69
DOCKED: USER    DPF = ligand_dock.biased.dpf
DOCKED: USER  
DOCKED: USER    Estimated Free Energy of Binding    =   -9.52 kcal/mol  [=(1)+(2)+(3)-(4)]
DOCKED: USER    Estimated Inhibition Constant, Ki   =  105.03 nM (nanomolar)  [Temperature = 298.15 K]
DOCKED: USER    
DOCKED: USER    (1) Final Intermolecular Energy     =  -12.21 kcal/mol
DOCKED: USER        vdW + Hbond + desolv Energy     =  -12.21 kcal/mol
DOCKED: USER        Electrostatic Energy            =   +0.00 kcal/mol
DOCKED: USER    (2) Final Total Internal Energy     =   -1.33 kcal/mol
DOCKED: USER    (3) Torsional Free Energy           =   +2.68 kcal/mol
DOCKED: USER    (4) Unbound System's Energy  [=(2)] =   -1.33 kcal/mol
DOCKED: USER    
DOCKED: USER    
DOCKED: USER    NEWDPF move ligand.pdbqt
DOCKED: USER    NEWDPF about 0.056000 -0.347000 0.144000
DOCKED: USER    NEWDPF tran0 26.808742 -13.791338 -1.218669
DOCKED: USER    NEWDPF quaternion0 -0.305547 -0.137427 0.919316 0.206429
DOCKED: USER    NEWDPF axisangle0 -0.312273 -0.140452 0.939553 156.173694
DOCKED: USER    NEWDPF quat0 -0.312273 -0.140452 0.939553 156.173694
DOCKED: USER    NEWDPF dihe0 -0.79 -34.25 -137.62 127.90 37.29 130.46 132.28 117.49 94.35 
DOCKED: USER  keepresnum = 1 
DOCKED: USER  
DOCKED: REMARK  Name = 
DOCKED: REMARK  9 active torsions:
DOCKED: REMARK  status: ('A' for Active; 'I' for Inactive)
DOCKED: REMARK    1  A    between atoms: C_2  and  C_10
DOCKED: REMARK    2  A    between atoms: N_3  and  C_4
DOCKED: REMARK    3  A    between atoms: C_10  and  C_11
DOCKED: REMARK    4  A    between atoms: C_11  and  C_12
DOCKED: REMARK    5  A    between atoms: C_12  and  C_13
DOCKED: REMARK    6  A    between atoms: C_13  and  C_14
DOCKED: REMARK    7  A    between atoms: C_14  and  C_15
DOCKED: REMARK    8  A    between atoms: C_15  and  C_16
DOCKED: REMARK    9  A    between atoms: N_17  and  O_18
DOCKED: REMARK                            x       y       z     vdW  Elec       q    Type
DOCKED: REMARK                         _______ _______ _______ _____ _____    ______ ____
DOCKED: USER                              x       y       z     vdW  Elec       q    Type
DOCKED: USER                           _______ _______ _______ _____ _____    ______ ____
DOCKED: ROOT
DOCKED: ATOM      1  C   UNL     1      27.947 -16.084  -0.639 -0.33 -0.00    +0.000 C 
DOCKED: ENDROOT
DOCKED: BRANCH   1   3
DOCKED: ATOM      2  O   UNL     1      29.588 -15.153   0.820 -0.20 -0.00    +0.000 OA
DOCKED: ATOM      3  C   UNL     1      28.363 -15.246   0.532 -0.21 -0.00    +0.000 C 
DOCKED: ATOM      4  N   UNL     1      27.373 -14.564   1.317 -0.28 -0.00    +0.000 N 
DOCKED: ATOM      5  H   UNL     1      26.449 -14.538   0.975 -0.01 -0.00    +0.000 HD
DOCKED: BRANCH   4   6
DOCKED: ATOM      6  C   UNL     1      27.645 -13.917   2.570 -0.30 -0.00    +0.000 A 
DOCKED: ATOM      7  C   UNL     1      27.926 -14.659   3.733 -0.38 -0.00    +0.000 A 
DOCKED: ATOM      8  C   UNL     1      28.168 -14.004   4.945 -0.50 -0.00    +0.000 A 
DOCKED: ATOM      9  C   UNL     1      28.117 -12.609   5.011 -0.37 -0.00    +0.000 A 
DOCKED: ATOM     10  C   UNL     1      27.815 -11.866   3.867 -0.28 +0.00    +0.000 A 
DOCKED: ATOM     11  C   UNL     1      27.572 -12.517   2.655 -0.26 -0.00    +0.000 A 
DOCKED: ENDBRANCH   4   6
DOCKED: ENDBRANCH   1   3
DOCKED: BRANCH   1  12
DOCKED: ATOM     12  C   UNL     1      26.962 -15.312  -1.523 -0.34 -0.00    +0.000 C 
DOCKED: BRANCH  12  13
DOCKED: ATOM     13  C   UNL     1      25.522 -15.479  -1.014 -0.42 -0.00    +0.000 C 
DOCKED: BRANCH  13  14
DOCKED: ATOM     14  C   UNL     1      24.993 -16.909  -1.199 -0.64 -0.00    +0.000 C 
DOCKED: BRANCH  14  15
DOCKED: ATOM     15  C   UNL     1      23.455 -16.976  -1.199 -0.54 -0.00    +0.000 C 
DOCKED: BRANCH  15  16
DOCKED: ATOM     16  C   UNL     1      22.934 -18.316  -0.664 -0.83 -0.00    +0.000 C 
DOCKED: BRANCH  16  17
DOCKED: ATOM     17  C   UNL     1      21.493 -18.536  -1.025 -0.79 -0.00    +0.000 C 
DOCKED: ATOM     18  N   UNL     1      21.088 -19.732  -1.694 -0.66 -0.00    +0.000 N 
DOCKED: ATOM     19  O   UNL     1      20.633 -17.671  -0.708 -2.22 +0.00    +0.000 OA
DOCKED: ATOM     20  H   UNL     1      21.764 -20.401  -1.951 -0.46 -0.00    +0.000 HD
DOCKED: BRANCH  18  21
DOCKED: ATOM     21  O   UNL     1      19.783 -19.956  -1.978 -1.72 -0.00    +0.000 OA
DOCKED: ATOM     22  H   UNL     1      19.250 -19.214  -1.651 -0.45 -0.00    +0.000 HD
DOCKED: ENDBRANCH  18  21
DOCKED: ENDBRANCH  16  17
DOCKED: ENDBRANCH  15  16
DOCKED: ENDBRANCH  14  15
DOCKED: ENDBRANCH  13  14
DOCKED: ENDBRANCH  12  13
DOCKED: ENDBRANCH   1  12
DOCKED: TORSDOF 9
DOCKED: TER
DOCKED: ENDMDL
________________________________________________________________________________


	BEGINNING GENETIC ALGORITHM DOCKING 70 of 100
Run: 70 Seed: 253259905 2047906287 [ Run 70 of 100 GA/GALS ]
Beginning LAMARCKIAN GENETIC ALGORITHM (LGA), with a maximum of 2500000 energy evaluations.

Final-Value: -13.481


	FINAL GENETIC ALGORITHM DOCKED STATE
	_______________________________________________


Detailed state:  trans 25.041 -16.488 -0.470 quatxyzw -0.151012 0.080390 -0.834147 -0.524339 center 0.056 -0.347 0.144 ntor 9 10.0102 -73.0662 -146.9415 -152.8766 60.4795 15.3967 178.4569 -7.4561 -136.8889
State:	 25.041 -16.488  -0.470  -0.177  0.094 -0.980 -116.752     10.01  -73.07 -146.94 -152.88   60.48   15.40  178.46   -7.46 -136.89

DOCKED: MODEL       70
DOCKED: USER    Run = 70
DOCKED: USER    DPF = ligand_dock.biased.dpf
DOCKED: USER  
DOCKED: USER    Estimated Free Energy of Binding    =   -9.42 kcal/mol  [=(1)+(2)+(3)-(4)]
DOCKED: USER    Estimated Inhibition Constant, Ki   =  124.39 nM (nanomolar)  [Temperature = 298.15 K]
DOCKED: USER    
DOCKED: USER    (1) Final Intermolecular Energy     =  -12.11 kcal/mol
DOCKED: USER        vdW + Hbond + desolv Energy     =  -12.11 kcal/mol
DOCKED: USER        Electrostatic Energy            =   +0.00 kcal/mol
DOCKED: USER    (2) Final Total Internal Energy     =   -1.38 kcal/mol
DOCKED: USER    (3) Torsional Free Energy           =   +2.68 kcal/mol
DOCKED: USER    (4) Unbound System's Energy  [=(2)] =   -1.38 kcal/mol
DOCKED: USER    
DOCKED: USER    
DOCKED: USER    NEWDPF move ligand.pdbqt
DOCKED: USER    NEWDPF about 0.056000 -0.347000 0.144000
DOCKED: USER    NEWDPF tran0 25.040849 -16.487833 -0.470088
DOCKED: USER    NEWDPF quaternion0 -0.151012 0.080390 -0.834147 -0.524339
DOCKED: USER    NEWDPF axisangle0 -0.177346 0.094409 -0.979610 -116.752442
DOCKED: USER    NEWDPF quat0 -0.177346 0.094409 -0.979610 -116.752442
DOCKED: USER    NEWDPF dihe0 10.01 -73.07 -146.94 -152.88 60.48 15.40 178.46 -7.46 -136.89 
DOCKED: USER  keepresnum = 1 
DOCKED: USER  
DOCKED: REMARK  Name = 
DOCKED: REMARK  9 active torsions:
DOCKED: REMARK  status: ('A' for Active; 'I' for Inactive)
DOCKED: REMARK    1  A    between atoms: C_2  and  C_10
DOCKED: REMARK    2  A    between atoms: N_3  and  C_4
DOCKED: REMARK    3  A    between atoms: C_10  and  C_11
DOCKED: REMARK    4  A    between atoms: C_11  and  C_12
DOCKED: REMARK    5  A    between atoms: C_12  and  C_13
DOCKED: REMARK    6  A    between atoms: C_13  and  C_14
DOCKED: REMARK    7  A    between atoms: C_14  and  C_15
DOCKED: REMARK    8  A    between atoms: C_15  and  C_16
DOCKED: REMARK    9  A    between atoms: N_17  and  O_18
DOCKED: REMARK                            x       y       z     vdW  Elec       q    Type
DOCKED: REMARK                         _______ _______ _______ _____ _____    ______ ____
DOCKED: USER                              x       y       z     vdW  Elec       q    Type
DOCKED: USER                           _______ _______ _______ _____ _____    ______ ____
DOCKED: ROOT
DOCKED: ATOM      1  C   UNL     1      27.593 -17.089  -0.577 -0.43 -0.00    +0.000 C 
DOCKED: ENDROOT
DOCKED: BRANCH   1   3
DOCKED: ATOM      2  O   UNL     1      27.494 -14.774  -1.141 -0.23 -0.00    +0.000 OA
DOCKED: ATOM      3  C   UNL     1      27.650 -15.632  -0.230 -0.32 -0.00    +0.000 C 
DOCKED: ATOM      4  N   UNL     1      27.886 -15.224   1.127 -0.24 -0.00    +0.000 N 
DOCKED: ATOM      5  H   UNL     1      27.853 -15.914   1.829 -0.68 -0.00    +0.000 HD
DOCKED: BRANCH   4   6
DOCKED: ATOM      6  C   UNL     1      28.167 -13.872   1.523 -0.22 -0.00    +0.000 A 
DOCKED: ATOM      7  C   UNL     1      29.443 -13.492   1.982 -0.13 -0.00    +0.000 A 
DOCKED: ATOM      8  C   UNL     1      29.684 -12.173   2.380 -0.07 -0.00    +0.000 A 
DOCKED: ATOM      9  C   UNL     1      28.655 -11.228   2.338 -0.11 +0.00    +0.000 A 
DOCKED: ATOM     10  C   UNL     1      27.380 -11.603   1.908 -0.22 +0.00    +0.000 A 
DOCKED: ATOM     11  C   UNL     1      27.134 -12.920   1.510 -0.27 -0.00    +0.000 A 
DOCKED: ENDBRANCH   4   6
DOCKED: ENDBRANCH   1   3
DOCKED: BRANCH   1  12
DOCKED: ATOM     12  C   UNL     1      26.144 -17.585  -0.556 -0.62 -0.00    +0.000 C 
DOCKED: BRANCH  12  13
DOCKED: ATOM     13  C   UNL     1      25.207 -16.570  -1.227 -0.60 -0.00    +0.000 C 
DOCKED: BRANCH  13  14
DOCKED: ATOM     14  C   UNL     1      23.819 -17.156  -1.527 -0.58 -0.00    +0.000 C 
DOCKED: BRANCH  14  15
DOCKED: ATOM     15  C   UNL     1      22.855 -17.038  -0.333 -0.56 -0.00    +0.000 C 
DOCKED: BRANCH  15  16
DOCKED: ATOM     16  C   UNL     1      22.220 -18.385   0.035 -0.80 -0.00    +0.000 C 
DOCKED: BRANCH  16  17
DOCKED: ATOM     17  C   UNL     1      21.011 -18.677  -0.805 -0.85 -0.00    +0.000 C 
DOCKED: ATOM     18  N   UNL     1      20.991 -19.807  -1.679 -0.60 -0.00    +0.000 N 
DOCKED: ATOM     19  O   UNL     1      19.996 -17.935  -0.714 -1.97 -0.00    +0.000 OA
DOCKED: ATOM     20  H   UNL     1      21.789 -20.379  -1.757 -0.41 -0.00    +0.000 HD
DOCKED: BRANCH  18  21
DOCKED: ATOM     21  O   UNL     1      19.884 -20.101  -2.402 -1.72 -0.00    +0.000 OA
DOCKED: ATOM     22  H   UNL     1      19.253 -19.367  -2.338 -0.47 -0.00    +0.000 HD
DOCKED: ENDBRANCH  18  21
DOCKED: ENDBRANCH  16  17
DOCKED: ENDBRANCH  15  16
DOCKED: ENDBRANCH  14  15
DOCKED: ENDBRANCH  13  14
DOCKED: ENDBRANCH  12  13
DOCKED: ENDBRANCH   1  12
DOCKED: TORSDOF 9
DOCKED: TER
DOCKED: ENDMDL
________________________________________________________________________________


	BEGINNING GENETIC ALGORITHM DOCKING 71 of 100
Run: 71 Seed: 1435318523 785213129 [ Run 71 of 100 GA/GALS ]
Beginning LAMARCKIAN GENETIC ALGORITHM (LGA), with a maximum of 2500000 energy evaluations.

Final-Value: -12.860


	FINAL GENETIC ALGORITHM DOCKED STATE
	_______________________________________________


Detailed state:  trans 25.486 -15.785 -2.619 quatxyzw 0.263389 0.634838 0.717250 0.114713 center 0.056 -0.347 0.144 ntor 9 25.0547 159.7812 -8.2937 154.8503 170.1892 70.9567 13.2285 -85.6600 -83.3371
State:	 25.486 -15.785  -2.619   0.265  0.639  0.722 166.826     25.05  159.78   -8.29  154.85  170.19   70.96   13.23  -85.66  -83.34

DOCKED: MODEL       71
DOCKED: USER    Run = 71
DOCKED: USER    DPF = ligand_dock.biased.dpf
DOCKED: USER  
DOCKED: USER    Estimated Free Energy of Binding    =   -8.87 kcal/mol  [=(1)+(2)+(3)-(4)]
DOCKED: USER    Estimated Inhibition Constant, Ki   =  317.28 nM (nanomolar)  [Temperature = 298.15 K]
DOCKED: USER    
DOCKED: USER    (1) Final Intermolecular Energy     =  -11.55 kcal/mol
DOCKED: USER        vdW + Hbond + desolv Energy     =  -11.55 kcal/mol
DOCKED: USER        Electrostatic Energy            =   +0.00 kcal/mol
DOCKED: USER    (2) Final Total Internal Energy     =   -1.31 kcal/mol
DOCKED: USER    (3) Torsional Free Energy           =   +2.68 kcal/mol
DOCKED: USER    (4) Unbound System's Energy  [=(2)] =   -1.31 kcal/mol
DOCKED: USER    
DOCKED: USER    
DOCKED: USER    NEWDPF move ligand.pdbqt
DOCKED: USER    NEWDPF about 0.056000 -0.347000 0.144000
DOCKED: USER    NEWDPF tran0 25.486385 -15.785354 -2.619259
DOCKED: USER    NEWDPF quaternion0 0.263389 0.634838 0.717250 0.114713
DOCKED: USER    NEWDPF axisangle0 0.265140 0.639057 0.722016 166.825812
DOCKED: USER    NEWDPF quat0 0.265140 0.639057 0.722016 166.825812
DOCKED: USER    NEWDPF dihe0 25.05 159.78 -8.29 154.85 170.19 70.96 13.23 -85.66 -83.34 
DOCKED: USER  keepresnum = 1 
DOCKED: USER  
DOCKED: REMARK  Name = 
DOCKED: REMARK  9 active torsions:
DOCKED: REMARK  status: ('A' for Active; 'I' for Inactive)
DOCKED: REMARK    1  A    between atoms: C_2  and  C_10
DOCKED: REMARK    2  A    between atoms: N_3  and  C_4
DOCKED: REMARK    3  A    between atoms: C_10  and  C_11
DOCKED: REMARK    4  A    between atoms: C_11  and  C_12
DOCKED: REMARK    5  A    between atoms: C_12  and  C_13
DOCKED: REMARK    6  A    between atoms: C_13  and  C_14
DOCKED: REMARK    7  A    between atoms: C_14  and  C_15
DOCKED: REMARK    8  A    between atoms: C_15  and  C_16
DOCKED: REMARK    9  A    between atoms: N_17  and  O_18
DOCKED: REMARK                            x       y       z     vdW  Elec       q    Type
DOCKED: REMARK                         _______ _______ _______ _____ _____    ______ ____
DOCKED: USER                              x       y       z     vdW  Elec       q    Type
DOCKED: USER                           _______ _______ _______ _____ _____    ______ ____
DOCKED: ROOT
DOCKED: ATOM      1  C   UNL     1      27.315 -15.564  -0.749 -0.34 -0.00    +0.000 C 
DOCKED: ENDROOT
DOCKED: BRANCH   1   3
DOCKED: ATOM      2  O   UNL     1      28.635 -14.154  -2.148 -0.12 -0.00    +0.000 OA
DOCKED: ATOM      3  C   UNL     1      28.123 -15.295  -1.982 -0.23 -0.00    +0.000 C 
DOCKED: ATOM      4  N   UNL     1      28.305 -16.328  -2.963 -0.27 -0.00    +0.000 N 
DOCKED: ATOM      5  H   UNL     1      28.020 -17.242  -2.730 -0.02 -0.00    +0.000 HD
DOCKED: BRANCH   4   6
DOCKED: ATOM      6  C   UNL     1      28.876 -16.111  -4.263 -0.24 -0.00    +0.000 A 
DOCKED: ATOM      7  C   UNL     1      30.011 -16.825  -4.695 -0.25 -0.00    +0.000 A 
DOCKED: ATOM      8  C   UNL     1      30.559 -16.580  -5.958 -0.26 -0.00    +0.000 A 
DOCKED: ATOM      9  C   UNL     1      29.991 -15.614  -6.794 -0.29 -0.00    +0.000 A 
DOCKED: ATOM     10  C   UNL     1      28.880 -14.884  -6.363 -0.35 -0.00    +0.000 A 
DOCKED: ATOM     11  C   UNL     1      28.330 -15.125  -5.101 -0.34 -0.00    +0.000 A 
DOCKED: ENDBRANCH   4   6
DOCKED: ENDBRANCH   1   3
DOCKED: BRANCH   1  12
DOCKED: ATOM     12  C   UNL     1      25.828 -15.683  -1.102 -0.47 -0.00    +0.000 C 
DOCKED: BRANCH  12  13
DOCKED: ATOM     13  C   UNL     1      25.422 -17.153  -1.277 -0.63 -0.00    +0.000 C 
DOCKED: BRANCH  13  14
DOCKED: ATOM     14  C   UNL     1      24.984 -17.805   0.043 -0.57 -0.00    +0.000 C 
DOCKED: BRANCH  14  15
DOCKED: ATOM     15  C   UNL     1      23.800 -18.772  -0.138 -0.49 -0.00    +0.000 C 
DOCKED: BRANCH  15  16
DOCKED: ATOM     16  C   UNL     1      23.065 -18.547  -1.465 -0.75 -0.00    +0.000 C 
DOCKED: BRANCH  16  17
DOCKED: ATOM     17  C   UNL     1      21.575 -18.584  -1.289 -0.52 -0.00    +0.000 C 
DOCKED: ATOM     18  N   UNL     1      20.825 -19.729  -1.702 -0.75 -0.00    +0.000 N 
DOCKED: ATOM     19  O   UNL     1      20.988 -17.610  -0.747 -2.10 -0.00    +0.000 OA
DOCKED: ATOM     20  H   UNL     1      21.285 -20.484  -2.136 -0.47 -0.00    +0.000 HD
DOCKED: BRANCH  18  21
DOCKED: ATOM     21  O   UNL     1      19.487 -19.786  -1.501 -1.52 -0.00    +0.000 OA
DOCKED: ATOM     22  H   UNL     1      19.130 -18.886  -1.449 -0.56 -0.00    +0.000 HD
DOCKED: ENDBRANCH  18  21
DOCKED: ENDBRANCH  16  17
DOCKED: ENDBRANCH  15  16
DOCKED: ENDBRANCH  14  15
DOCKED: ENDBRANCH  13  14
DOCKED: ENDBRANCH  12  13
DOCKED: ENDBRANCH   1  12
DOCKED: TORSDOF 9
DOCKED: TER
DOCKED: ENDMDL
________________________________________________________________________________


	BEGINNING GENETIC ALGORITHM DOCKING 72 of 100
Run: 72 Seed: 81543823 1816442030 [ Run 72 of 100 GA/GALS ]
Beginning LAMARCKIAN GENETIC ALGORITHM (LGA), with a maximum of 2500000 energy evaluations.

Final-Value: -13.149


	FINAL GENETIC ALGORITHM DOCKED STATE
	_______________________________________________


Detailed state:  trans 27.454 -16.998 -0.454 quatxyzw -0.163236 0.943382 -0.034340 0.286715 center 0.056 -0.347 0.144 ntor 9 9.3928 97.4494 32.1930 111.0864 -173.7264 67.1317 -168.3297 6.1233 103.3864
State:	 27.454 -16.998  -0.454  -0.170  0.985 -0.036 146.677      9.39   97.45   32.19  111.09 -173.73   67.13 -168.33    6.12  103.39

DOCKED: MODEL       72
DOCKED: USER    Run = 72
DOCKED: USER    DPF = ligand_dock.biased.dpf
DOCKED: USER  
DOCKED: USER    Estimated Free Energy of Binding    =   -9.09 kcal/mol  [=(1)+(2)+(3)-(4)]
DOCKED: USER    Estimated Inhibition Constant, Ki   =  218.62 nM (nanomolar)  [Temperature = 298.15 K]
DOCKED: USER    
DOCKED: USER    (1) Final Intermolecular Energy     =  -11.77 kcal/mol
DOCKED: USER        vdW + Hbond + desolv Energy     =  -11.77 kcal/mol
DOCKED: USER        Electrostatic Energy            =   +0.00 kcal/mol
DOCKED: USER    (2) Final Total Internal Energy     =   -1.38 kcal/mol
DOCKED: USER    (3) Torsional Free Energy           =   +2.68 kcal/mol
DOCKED: USER    (4) Unbound System's Energy  [=(2)] =   -1.38 kcal/mol
DOCKED: USER    
DOCKED: USER    
DOCKED: USER    NEWDPF move ligand.pdbqt
DOCKED: USER    NEWDPF about 0.056000 -0.347000 0.144000
DOCKED: USER    NEWDPF tran0 27.454049 -16.997698 -0.454321
DOCKED: USER    NEWDPF quaternion0 -0.163236 0.943382 -0.034340 0.286715
DOCKED: USER    NEWDPF axisangle0 -0.170390 0.984725 -0.035845 146.677168
DOCKED: USER    NEWDPF quat0 -0.170390 0.984725 -0.035845 146.677168
DOCKED: USER    NEWDPF dihe0 9.39 97.45 32.19 111.09 -173.73 67.13 -168.33 6.12 103.39 
DOCKED: USER  keepresnum = 1 
DOCKED: USER  
DOCKED: REMARK  Name = 
DOCKED: REMARK  9 active torsions:
DOCKED: REMARK  status: ('A' for Active; 'I' for Inactive)
DOCKED: REMARK    1  A    between atoms: C_2  and  C_10
DOCKED: REMARK    2  A    between atoms: N_3  and  C_4
DOCKED: REMARK    3  A    between atoms: C_10  and  C_11
DOCKED: REMARK    4  A    between atoms: C_11  and  C_12
DOCKED: REMARK    5  A    between atoms: C_12  and  C_13
DOCKED: REMARK    6  A    between atoms: C_13  and  C_14
DOCKED: REMARK    7  A    between atoms: C_14  and  C_15
DOCKED: REMARK    8  A    between atoms: C_15  and  C_16
DOCKED: REMARK    9  A    between atoms: N_17  and  O_18
DOCKED: REMARK                            x       y       z     vdW  Elec       q    Type
DOCKED: REMARK                         _______ _______ _______ _____ _____    ______ ____
DOCKED: USER                              x       y       z     vdW  Elec       q    Type
DOCKED: USER                           _______ _______ _______ _____ _____    ______ ____
DOCKED: ROOT
DOCKED: ATOM      1  C   UNL     1      26.652 -14.641  -1.284 -0.32 -0.00    +0.000 C 
DOCKED: ENDROOT
DOCKED: BRANCH   1   3
DOCKED: ATOM      2  O   UNL     1      28.888 -15.067  -1.995 -0.15 -0.00    +0.000 OA
DOCKED: ATOM      3  C   UNL     1      27.673 -14.985  -2.325 -0.25 -0.00    +0.000 C 
DOCKED: ATOM      4  N   UNL     1      27.267 -15.214  -3.684 -0.33 -0.00    +0.000 N 
DOCKED: ATOM      5  H   UNL     1      26.303 -15.289  -3.872 -0.02 -0.00    +0.000 HD
DOCKED: BRANCH   4   6
DOCKED: ATOM      6  C   UNL     1      28.180 -15.338  -4.786 -0.34 -0.00    +0.000 A 
DOCKED: ATOM      7  C   UNL     1      29.152 -16.357  -4.822 -0.25 -0.00    +0.000 A 
DOCKED: ATOM      8  C   UNL     1      30.041 -16.443  -5.898 -0.30 -0.00    +0.000 A 
DOCKED: ATOM      9  C   UNL     1      29.980 -15.510  -6.936 -0.27 -0.00    +0.000 A 
DOCKED: ATOM     10  C   UNL     1      29.035 -14.482  -6.896 -0.31 -0.00    +0.000 A 
DOCKED: ATOM     11  C   UNL     1      28.145 -14.391  -5.822 -0.34 -0.00    +0.000 A 
DOCKED: ENDBRANCH   4   6
DOCKED: ENDBRANCH   1   3
DOCKED: BRANCH   1  12
DOCKED: ATOM     12  C   UNL     1      26.430 -15.828  -0.341 -0.38 -0.00    +0.000 C 
DOCKED: BRANCH  12  13
DOCKED: ATOM     13  C   UNL     1      25.557 -16.902  -1.007 -0.60 -0.00    +0.000 C 
DOCKED: BRANCH  13  14
DOCKED: ATOM     14  C   UNL     1      25.309 -18.111  -0.094 -0.67 -0.00    +0.000 C 
DOCKED: BRANCH  14  15
DOCKED: ATOM     15  C   UNL     1      23.855 -18.612  -0.155 -0.67 -0.00    +0.000 C 
DOCKED: BRANCH  15  16
DOCKED: ATOM     16  C   UNL     1      22.987 -17.760  -1.091 -0.75 -0.00    +0.000 C 
DOCKED: BRANCH  16  17
DOCKED: ATOM     17  C   UNL     1      21.574 -18.263  -1.151 -0.55 -0.00    +0.000 C 
DOCKED: ATOM     18  N   UNL     1      21.289 -19.561  -1.676 -0.62 -0.00    +0.000 N 
DOCKED: ATOM     19  O   UNL     1      20.638 -17.545  -0.707 -2.13 +0.00    +0.000 OA
DOCKED: ATOM     20  H   UNL     1      22.021 -20.115  -2.033 -0.53 -0.00    +0.000 HD
DOCKED: BRANCH  18  21
DOCKED: ATOM     21  O   UNL     1      20.021 -20.037  -1.688 -1.71 -0.00    +0.000 OA
DOCKED: ATOM     22  H   UNL     1      19.407 -19.327  -1.446 -0.29 -0.00    +0.000 HD
DOCKED: ENDBRANCH  18  21
DOCKED: ENDBRANCH  16  17
DOCKED: ENDBRANCH  15  16
DOCKED: ENDBRANCH  14  15
DOCKED: ENDBRANCH  13  14
DOCKED: ENDBRANCH  12  13
DOCKED: ENDBRANCH   1  12
DOCKED: TORSDOF 9
DOCKED: TER
DOCKED: ENDMDL
________________________________________________________________________________


	BEGINNING GENETIC ALGORITHM DOCKING 73 of 100
Run: 73 Seed: 181779688 438011829 [ Run 73 of 100 GA/GALS ]
Beginning LAMARCKIAN GENETIC ALGORITHM (LGA), with a maximum of 2500000 energy evaluations.

Final-Value: -13.758


	FINAL GENETIC ALGORITHM DOCKED STATE
	_______________________________________________


Detailed state:  trans 24.060 -16.112 -3.012 quatxyzw 0.367214 0.033193 0.630684 0.682854 center 0.056 -0.347 0.144 ntor 9 -12.1753 0.8680 172.7295 -18.3595 -10.4086 15.9528 -126.2406 -16.2886 130.5727
State:	 24.060 -16.112  -3.012   0.503  0.045  0.863 93.866    -12.18    0.87  172.73  -18.36  -10.41   15.95 -126.24  -16.29  130.57

DOCKED: MODEL       73
DOCKED: USER    Run = 73
DOCKED: USER    DPF = ligand_dock.biased.dpf
DOCKED: USER  
DOCKED: USER    Estimated Free Energy of Binding    =   -9.76 kcal/mol  [=(1)+(2)+(3)-(4)]
DOCKED: USER    Estimated Inhibition Constant, Ki   =   70.41 nM (nanomolar)  [Temperature = 298.15 K]
DOCKED: USER    
DOCKED: USER    (1) Final Intermolecular Energy     =  -12.44 kcal/mol
DOCKED: USER        vdW + Hbond + desolv Energy     =  -12.44 kcal/mol
DOCKED: USER        Electrostatic Energy            =   +0.00 kcal/mol
DOCKED: USER    (2) Final Total Internal Energy     =   -1.32 kcal/mol
DOCKED: USER    (3) Torsional Free Energy           =   +2.68 kcal/mol
DOCKED: USER    (4) Unbound System's Energy  [=(2)] =   -1.32 kcal/mol
DOCKED: USER    
DOCKED: USER    
DOCKED: USER    NEWDPF move ligand.pdbqt
DOCKED: USER    NEWDPF about 0.056000 -0.347000 0.144000
DOCKED: USER    NEWDPF tran0 24.060183 -16.112416 -3.011665
DOCKED: USER    NEWDPF quaternion0 0.367214 0.033193 0.630684 0.682854
DOCKED: USER    NEWDPF axisangle0 0.502651 0.045436 0.863294 93.865872
DOCKED: USER    NEWDPF quat0 0.502651 0.045436 0.863294 93.865872
DOCKED: USER    NEWDPF dihe0 -12.18 0.87 172.73 -18.36 -10.41 15.95 -126.24 -16.29 130.57 
DOCKED: USER  keepresnum = 1 
DOCKED: USER  
DOCKED: REMARK  Name = 
DOCKED: REMARK  9 active torsions:
DOCKED: REMARK  status: ('A' for Active; 'I' for Inactive)
DOCKED: REMARK    1  A    between atoms: C_2  and  C_10
DOCKED: REMARK    2  A    between atoms: N_3  and  C_4
DOCKED: REMARK    3  A    between atoms: C_10  and  C_11
DOCKED: REMARK    4  A    between atoms: C_11  and  C_12
DOCKED: REMARK    5  A    between atoms: C_12  and  C_13
DOCKED: REMARK    6  A    between atoms: C_13  and  C_14
DOCKED: REMARK    7  A    between atoms: C_14  and  C_15
DOCKED: REMARK    8  A    between atoms: C_15  and  C_16
DOCKED: REMARK    9  A    between atoms: N_17  and  O_18
DOCKED: REMARK                            x       y       z     vdW  Elec       q    Type
DOCKED: REMARK                         _______ _______ _______ _____ _____    ______ ____
DOCKED: USER                              x       y       z     vdW  Elec       q    Type
DOCKED: USER                           _______ _______ _______ _____ _____    ______ ____
DOCKED: ROOT
DOCKED: ATOM      1  C   UNL     1      26.451 -15.443  -3.863 -0.51 -0.00    +0.000 C 
DOCKED: ENDROOT
DOCKED: BRANCH   1   3
DOCKED: ATOM      2  O   UNL     1      24.485 -14.103  -4.029 -1.12 -0.00    +0.000 OA
DOCKED: ATOM      3  C   UNL     1      25.741 -14.123  -3.917 -0.51 -0.00    +0.000 C 
DOCKED: ATOM      4  N   UNL     1      26.490 -12.900  -3.845 -0.27 -0.00    +0.000 N 
DOCKED: ATOM      5  H   UNL     1      27.444 -12.956  -3.608 +0.00 -0.00    +0.000 HD
DOCKED: BRANCH   4   6
DOCKED: ATOM      6  C   UNL     1      25.933 -11.600  -4.098 -0.19 -0.00    +0.000 A 
DOCKED: ATOM      7  C   UNL     1      24.949 -11.403  -5.086 -0.34 -0.00    +0.000 A 
DOCKED: ATOM      8  C   UNL     1      24.439 -10.124  -5.326 -0.38 -0.00    +0.000 A 
DOCKED: ATOM      9  C   UNL     1      24.913  -9.031  -4.596 -0.27 -0.00    +0.000 A 
DOCKED: ATOM     10  C   UNL     1      25.907  -9.213  -3.632 -0.18 -0.00    +0.000 A 
DOCKED: ATOM     11  C   UNL     1      26.420 -10.490  -3.389 -0.11 -0.00    +0.000 A 
DOCKED: ENDBRANCH   4   6
DOCKED: ENDBRANCH   1   3
DOCKED: BRANCH   1  12
DOCKED: ATOM     12  C   UNL     1      25.555 -16.504  -3.216 -0.20 -0.00    +0.000 C 
DOCKED: BRANCH  12  13
DOCKED: ATOM     13  C   UNL     1      24.969 -15.993  -1.891 -0.51 -0.00    +0.000 C 
DOCKED: BRANCH  13  14
DOCKED: ATOM     14  C   UNL     1      23.688 -16.738  -1.486 -0.38 -0.00    +0.000 C 
DOCKED: BRANCH  14  15
DOCKED: ATOM     15  C   UNL     1      23.976 -18.019  -0.684 -0.79 -0.00    +0.000 C 
DOCKED: BRANCH  15  16
DOCKED: ATOM     16  C   UNL     1      22.743 -18.510   0.086 -0.73 -0.00    +0.000 C 
DOCKED: BRANCH  16  17
DOCKED: ATOM     17  C   UNL     1      21.533 -18.594  -0.799 -0.85 -0.00    +0.000 C 
DOCKED: ATOM     18  N   UNL     1      21.380 -19.678  -1.718 -0.52 -0.00    +0.000 N 
DOCKED: ATOM     19  O   UNL     1      20.633 -17.716  -0.707 -2.25 -0.00    +0.000 OA
DOCKED: ATOM     20  H   UNL     1      22.091 -20.355  -1.795 -0.41 -0.00    +0.000 HD
DOCKED: BRANCH  18  21
DOCKED: ATOM     21  O   UNL     1      20.268 -19.782  -2.483 -1.66 -0.00    +0.000 OA
DOCKED: ATOM     22  H   UNL     1      19.594 -19.164  -2.159 -0.27 -0.00    +0.000 HD
DOCKED: ENDBRANCH  18  21
DOCKED: ENDBRANCH  16  17
DOCKED: ENDBRANCH  15  16
DOCKED: ENDBRANCH  14  15
DOCKED: ENDBRANCH  13  14
DOCKED: ENDBRANCH  12  13
DOCKED: ENDBRANCH   1  12
DOCKED: TORSDOF 9
DOCKED: TER
DOCKED: ENDMDL
________________________________________________________________________________


	BEGINNING GENETIC ALGORITHM DOCKING 74 of 100
Run: 74 Seed: 964275391 232423295 [ Run 74 of 100 GA/GALS ]
Beginning LAMARCKIAN GENETIC ALGORITHM (LGA), with a maximum of 2500000 energy evaluations.

Final-Value: -14.815


	FINAL GENETIC ALGORITHM DOCKED STATE
	_______________________________________________


Detailed state:  trans 26.247 -14.347 -2.204 quatxyzw -0.420919 -0.003402 0.817947 0.392146 center 0.056 -0.347 0.144 ntor 9 -8.2685 8.7251 -117.7699 168.9862 -0.8813 76.0800 -95.7089 114.7073 113.2833
State:	 26.247 -14.347  -2.204  -0.458 -0.004  0.889 133.824     -8.27    8.73 -117.77  168.99   -0.88   76.08  -95.71  114.71  113.28

DOCKED: MODEL       74
DOCKED: USER    Run = 74
DOCKED: USER    DPF = ligand_dock.biased.dpf
DOCKED: USER  
DOCKED: USER    Estimated Free Energy of Binding    =  -10.89 kcal/mol  [=(1)+(2)+(3)-(4)]
DOCKED: USER    Estimated Inhibition Constant, Ki   =   10.40 nM (nanomolar)  [Temperature = 298.15 K]
DOCKED: USER    
DOCKED: USER    (1) Final Intermolecular Energy     =  -13.58 kcal/mol
DOCKED: USER        vdW + Hbond + desolv Energy     =  -13.58 kcal/mol
DOCKED: USER        Electrostatic Energy            =   +0.00 kcal/mol
DOCKED: USER    (2) Final Total Internal Energy     =   -1.24 kcal/mol
DOCKED: USER    (3) Torsional Free Energy           =   +2.68 kcal/mol
DOCKED: USER    (4) Unbound System's Energy  [=(2)] =   -1.24 kcal/mol
DOCKED: USER    
DOCKED: USER    
DOCKED: USER    NEWDPF move ligand.pdbqt
DOCKED: USER    NEWDPF about 0.056000 -0.347000 0.144000
DOCKED: USER    NEWDPF tran0 26.246500 -14.346865 -2.203571
DOCKED: USER    NEWDPF quaternion0 -0.420919 -0.003402 0.817947 0.392146
DOCKED: USER    NEWDPF axisangle0 -0.457568 -0.003698 0.889167 133.823810
DOCKED: USER    NEWDPF quat0 -0.457568 -0.003698 0.889167 133.823810
DOCKED: USER    NEWDPF dihe0 -8.27 8.73 -117.77 168.99 -0.88 76.08 -95.71 114.71 113.28 
DOCKED: USER  keepresnum = 1 
DOCKED: USER  
DOCKED: REMARK  Name = 
DOCKED: REMARK  9 active torsions:
DOCKED: REMARK  status: ('A' for Active; 'I' for Inactive)
DOCKED: REMARK    1  A    between atoms: C_2  and  C_10
DOCKED: REMARK    2  A    between atoms: N_3  and  C_4
DOCKED: REMARK    3  A    between atoms: C_10  and  C_11
DOCKED: REMARK    4  A    between atoms: C_11  and  C_12
DOCKED: REMARK    5  A    between atoms: C_12  and  C_13
DOCKED: REMARK    6  A    between atoms: C_13  and  C_14
DOCKED: REMARK    7  A    between atoms: C_14  and  C_15
DOCKED: REMARK    8  A    between atoms: C_15  and  C_16
DOCKED: REMARK    9  A    between atoms: N_17  and  O_18
DOCKED: REMARK                            x       y       z     vdW  Elec       q    Type
DOCKED: REMARK                         _______ _______ _______ _____ _____    ______ ____
DOCKED: USER                              x       y       z     vdW  Elec       q    Type
DOCKED: USER                           _______ _______ _______ _____ _____    ______ ____
DOCKED: ROOT
DOCKED: ATOM      1  C   UNL     1      27.498 -15.977  -0.571 -0.36 -0.00    +0.000 C 
DOCKED: ENDROOT
DOCKED: BRANCH   1   3
DOCKED: ATOM      2  O   UNL     1      26.517 -13.858  -0.090 -0.34 -0.00    +0.000 OA
DOCKED: ATOM      3  C   UNL     1      27.223 -14.813   0.332 -0.30 -0.00    +0.000 C 
DOCKED: ATOM      4  N   UNL     1      27.765 -14.791   1.662 -0.28 -0.00    +0.000 N 
DOCKED: ATOM      5  H   UNL     1      28.181 -15.615   2.005 -1.07 -0.00    +0.000 HD
DOCKED: BRANCH   4   6
DOCKED: ATOM      6  C   UNL     1      27.738 -13.641   2.522 -0.30 -0.00    +0.000 A 
DOCKED: ATOM      7  C   UNL     1      27.730 -12.333   1.999 -0.21 -0.00    +0.000 A 
DOCKED: ATOM      8  C   UNL     1      27.724 -11.231   2.859 -0.22 +0.00    +0.000 A 
DOCKED: ATOM      9  C   UNL     1      27.741 -11.420   4.243 -0.30 +0.00    +0.000 A 
DOCKED: ATOM     10  C   UNL     1      27.775 -12.714   4.771 -0.38 -0.00    +0.000 A 
DOCKED: ATOM     11  C   UNL     1      27.781 -13.819   3.914 -0.45 -0.00    +0.000 A 
DOCKED: ENDBRANCH   4   6
DOCKED: ENDBRANCH   1   3
DOCKED: BRANCH   1  12
DOCKED: ATOM     12  C   UNL     1      26.818 -15.770  -1.929 -0.39 -0.00    +0.000 C 
DOCKED: BRANCH  12  13
DOCKED: ATOM     13  C   UNL     1      25.289 -15.809  -1.789 -0.50 -0.00    +0.000 C 
DOCKED: BRANCH  13  14
DOCKED: ATOM     14  C   UNL     1      24.759 -17.221  -1.499 -0.67 -0.00    +0.000 C 
DOCKED: BRANCH  14  15
DOCKED: ATOM     15  C   UNL     1      23.507 -17.212  -0.603 -0.68 -0.00    +0.000 C 
DOCKED: BRANCH  15  16
DOCKED: ATOM     16  C   UNL     1      22.864 -18.600  -0.492 -0.83 -0.00    +0.000 C 
DOCKED: BRANCH  16  17
DOCKED: ATOM     17  C   UNL     1      21.431 -18.587  -0.940 -0.82 -0.00    +0.000 C 
DOCKED: ATOM     18  N   UNL     1      20.865 -19.727  -1.591 -0.76 -0.00    +0.000 N 
DOCKED: ATOM     19  O   UNL     1      20.717 -17.574  -0.714 -2.14 +0.00    +0.000 OA
DOCKED: ATOM     20  H   UNL     1      21.429 -20.513  -1.777 -0.35 -0.00    +0.000 HD
DOCKED: BRANCH  18  21
DOCKED: ATOM     21  O   UNL     1      19.561 -19.736  -1.954 -1.66 -0.00    +0.000 OA
DOCKED: ATOM     22  H   UNL     1      19.118 -18.954  -1.589 -0.56 -0.00    +0.000 HD
DOCKED: ENDBRANCH  18  21
DOCKED: ENDBRANCH  16  17
DOCKED: ENDBRANCH  15  16
DOCKED: ENDBRANCH  14  15
DOCKED: ENDBRANCH  13  14
DOCKED: ENDBRANCH  12  13
DOCKED: ENDBRANCH   1  12
DOCKED: TORSDOF 9
DOCKED: TER
DOCKED: ENDMDL
________________________________________________________________________________


	BEGINNING GENETIC ALGORITHM DOCKING 75 of 100
Run: 75 Seed: 1359657272 647504753 [ Run 75 of 100 GA/GALS ]
Beginning LAMARCKIAN GENETIC ALGORITHM (LGA), with a maximum of 2500000 energy evaluations.

Final-Value: -14.905


	FINAL GENETIC ALGORITHM DOCKED STATE
	_______________________________________________


Detailed state:  trans 26.682 -15.920 -2.067 quatxyzw 0.117742 -0.887922 0.246311 -0.370219 center 0.056 -0.347 0.144 ntor 9 13.4244 -56.6249 -179.7946 74.9199 19.9802 50.0620 8.2782 34.3236 142.7304
State:	 26.682 -15.920  -2.067   0.127 -0.956  0.265 -136.542     13.42  -56.62 -179.79   74.92   19.98   50.06    8.28   34.32  142.73

DOCKED: MODEL       75
DOCKED: USER    Run = 75
DOCKED: USER    DPF = ligand_dock.biased.dpf
DOCKED: USER  
DOCKED: USER    Estimated Free Energy of Binding    =  -10.82 kcal/mol  [=(1)+(2)+(3)-(4)]
DOCKED: USER    Estimated Inhibition Constant, Ki   =   11.65 nM (nanomolar)  [Temperature = 298.15 K]
DOCKED: USER    
DOCKED: USER    (1) Final Intermolecular Energy     =  -13.51 kcal/mol
DOCKED: USER        vdW + Hbond + desolv Energy     =  -13.51 kcal/mol
DOCKED: USER        Electrostatic Energy            =   +0.00 kcal/mol
DOCKED: USER    (2) Final Total Internal Energy     =   -1.40 kcal/mol
DOCKED: USER    (3) Torsional Free Energy           =   +2.68 kcal/mol
DOCKED: USER    (4) Unbound System's Energy  [=(2)] =   -1.40 kcal/mol
DOCKED: USER    
DOCKED: USER    
DOCKED: USER    NEWDPF move ligand.pdbqt
DOCKED: USER    NEWDPF about 0.056000 -0.347000 0.144000
DOCKED: USER    NEWDPF tran0 26.682054 -15.920321 -2.067433
DOCKED: USER    NEWDPF quaternion0 0.117742 -0.887922 0.246311 -0.370219
DOCKED: USER    NEWDPF axisangle0 0.126749 -0.955840 0.265152 -136.541789
DOCKED: USER    NEWDPF quat0 0.126749 -0.955840 0.265152 -136.541789
DOCKED: USER    NEWDPF dihe0 13.42 -56.62 -179.79 74.92 19.98 50.06 8.28 34.32 142.73 
DOCKED: USER  keepresnum = 1 
DOCKED: USER  
DOCKED: REMARK  Name = 
DOCKED: REMARK  9 active torsions:
DOCKED: REMARK  status: ('A' for Active; 'I' for Inactive)
DOCKED: REMARK    1  A    between atoms: C_2  and  C_10
DOCKED: REMARK    2  A    between atoms: N_3  and  C_4
DOCKED: REMARK    3  A    between atoms: C_10  and  C_11
DOCKED: REMARK    4  A    between atoms: C_11  and  C_12
DOCKED: REMARK    5  A    between atoms: C_12  and  C_13
DOCKED: REMARK    6  A    between atoms: C_13  and  C_14
DOCKED: REMARK    7  A    between atoms: C_14  and  C_15
DOCKED: REMARK    8  A    between atoms: C_15  and  C_16
DOCKED: REMARK    9  A    between atoms: N_17  and  O_18
DOCKED: REMARK                            x       y       z     vdW  Elec       q    Type
DOCKED: REMARK                         _______ _______ _______ _____ _____    ______ ____
DOCKED: USER                              x       y       z     vdW  Elec       q    Type
DOCKED: USER                           _______ _______ _______ _____ _____    ______ ____
DOCKED: ROOT
DOCKED: ATOM      1  C   UNL     1      25.628 -14.199  -3.745 -0.52 -0.00    +0.000 C 
DOCKED: ENDROOT
DOCKED: BRANCH   1   3
DOCKED: ATOM      2  O   UNL     1      26.082 -15.720  -5.524 -1.14 +0.00    +0.000 OA
DOCKED: ATOM      3  C   UNL     1      26.560 -14.952  -4.646 -0.53 -0.00    +0.000 C 
DOCKED: ATOM      4  N   UNL     1      27.980 -14.798  -4.502 -0.29 -0.00    +0.000 N 
DOCKED: ATOM      5  H   UNL     1      28.310 -14.082  -3.911 +0.00 -0.00    +0.000 HD
DOCKED: BRANCH   4   6
DOCKED: ATOM      6  C   UNL     1      28.950 -15.626  -5.164 -0.31 -0.00    +0.000 A 
DOCKED: ATOM      7  C   UNL     1      29.487 -16.769  -4.542 -0.22 -0.00    +0.000 A 
DOCKED: ATOM      8  C   UNL     1      30.445 -17.545  -5.202 -0.27 -0.00    +0.000 A 
DOCKED: ATOM      9  C   UNL     1      30.885 -17.183  -6.477 -0.28 -0.00    +0.000 A 
DOCKED: ATOM     10  C   UNL     1      30.375 -16.036  -7.092 -0.28 -0.00    +0.000 A 
DOCKED: ATOM     11  C   UNL     1      29.419 -15.257  -6.436 -0.32 -0.00    +0.000 A 
DOCKED: ENDBRANCH   4   6
DOCKED: ENDBRANCH   1   3
DOCKED: BRANCH   1  12
DOCKED: ATOM     12  C   UNL     1      25.592 -14.844  -2.355 -0.41 -0.00    +0.000 C 
DOCKED: BRANCH  12  13
DOCKED: ATOM     13  C   UNL     1      25.663 -16.375  -2.460 -0.55 -0.00    +0.000 C 
DOCKED: BRANCH  13  14
DOCKED: ATOM     14  C   UNL     1      24.967 -17.080  -1.286 -0.66 -0.00    +0.000 C 
DOCKED: BRANCH  14  15
DOCKED: ATOM     15  C   UNL     1      23.827 -18.007  -1.743 -0.64 -0.00    +0.000 C 
DOCKED: BRANCH  15  16
DOCKED: ATOM     16  C   UNL     1      22.950 -18.468  -0.571 -0.83 -0.00    +0.000 C 
DOCKED: BRANCH  16  17
DOCKED: ATOM     17  C   UNL     1      21.504 -18.566  -0.965 -0.81 -0.00    +0.000 C 
DOCKED: ATOM     18  N   UNL     1      21.004 -19.745  -1.599 -0.71 -0.00    +0.000 N 
DOCKED: ATOM     19  O   UNL     1      20.722 -17.612  -0.706 -2.16 +0.00    +0.000 OA
DOCKED: ATOM     20  H   UNL     1      21.620 -20.484  -1.810 -0.40 -0.00    +0.000 HD
DOCKED: BRANCH  18  21
DOCKED: ATOM     21  O   UNL     1      19.691 -19.856  -1.912 -1.70 -0.00    +0.000 OA
DOCKED: ATOM     22  H   UNL     1      19.268 -18.986  -1.841 -0.48 -0.00    +0.000 HD
DOCKED: ENDBRANCH  18  21
DOCKED: ENDBRANCH  16  17
DOCKED: ENDBRANCH  15  16
DOCKED: ENDBRANCH  14  15
DOCKED: ENDBRANCH  13  14
DOCKED: ENDBRANCH  12  13
DOCKED: ENDBRANCH   1  12
DOCKED: TORSDOF 9
DOCKED: TER
DOCKED: ENDMDL
________________________________________________________________________________


	BEGINNING GENETIC ALGORITHM DOCKING 76 of 100
Run: 76 Seed: 950023532 1083245836 [ Run 76 of 100 GA/GALS ]
Beginning LAMARCKIAN GENETIC ALGORITHM (LGA), with a maximum of 2500000 energy evaluations.

Final-Value: -12.915


	FINAL GENETIC ALGORITHM DOCKED STATE
	_______________________________________________


Detailed state:  trans 27.867 -17.454 -1.742 quatxyzw 0.197698 -0.832249 -0.486255 0.178420 center 0.056 -0.347 0.144 ntor 9 0.2857 143.2849 -176.4005 175.0461 99.9771 157.1062 -55.5470 -47.0491 -36.1710
State:	 27.867 -17.454  -1.742   0.201 -0.846 -0.494 159.445      0.29  143.28 -176.40  175.05   99.98  157.11  -55.55  -47.05  -36.17

DOCKED: MODEL       76
DOCKED: USER    Run = 76
DOCKED: USER    DPF = ligand_dock.biased.dpf
DOCKED: USER  
DOCKED: USER    Estimated Free Energy of Binding    =   -9.00 kcal/mol  [=(1)+(2)+(3)-(4)]
DOCKED: USER    Estimated Inhibition Constant, Ki   =  252.29 nM (nanomolar)  [Temperature = 298.15 K]
DOCKED: USER    
DOCKED: USER    (1) Final Intermolecular Energy     =  -11.69 kcal/mol
DOCKED: USER        vdW + Hbond + desolv Energy     =  -11.69 kcal/mol
DOCKED: USER        Electrostatic Energy            =   +0.00 kcal/mol
DOCKED: USER    (2) Final Total Internal Energy     =   -1.23 kcal/mol
DOCKED: USER    (3) Torsional Free Energy           =   +2.68 kcal/mol
DOCKED: USER    (4) Unbound System's Energy  [=(2)] =   -1.23 kcal/mol
DOCKED: USER    
DOCKED: USER    
DOCKED: USER    NEWDPF move ligand.pdbqt
DOCKED: USER    NEWDPF about 0.056000 -0.347000 0.144000
DOCKED: USER    NEWDPF tran0 27.866577 -17.454330 -1.742486
DOCKED: USER    NEWDPF quaternion0 0.197698 -0.832249 -0.486255 0.178420
DOCKED: USER    NEWDPF axisangle0 0.200922 -0.845821 -0.494184 159.444551
DOCKED: USER    NEWDPF quat0 0.200922 -0.845821 -0.494184 159.444551
DOCKED: USER    NEWDPF dihe0 0.29 143.28 -176.40 175.05 99.98 157.11 -55.55 -47.05 -36.17 
DOCKED: USER  keepresnum = 1 
DOCKED: USER  
DOCKED: REMARK  Name = 
DOCKED: REMARK  9 active torsions:
DOCKED: REMARK  status: ('A' for Active; 'I' for Inactive)
DOCKED: REMARK    1  A    between atoms: C_2  and  C_10
DOCKED: REMARK    2  A    between atoms: N_3  and  C_4
DOCKED: REMARK    3  A    between atoms: C_10  and  C_11
DOCKED: REMARK    4  A    between atoms: C_11  and  C_12
DOCKED: REMARK    5  A    between atoms: C_12  and  C_13
DOCKED: REMARK    6  A    between atoms: C_13  and  C_14
DOCKED: REMARK    7  A    between atoms: C_14  and  C_15
DOCKED: REMARK    8  A    between atoms: C_15  and  C_16
DOCKED: REMARK    9  A    between atoms: N_17  and  O_18
DOCKED: REMARK                            x       y       z     vdW  Elec       q    Type
DOCKED: REMARK                         _______ _______ _______ _____ _____    ______ ____
DOCKED: USER                              x       y       z     vdW  Elec       q    Type
DOCKED: USER                           _______ _______ _______ _____ _____    ______ ____
DOCKED: ROOT
DOCKED: ATOM      1  C   UNL     1      27.143 -15.615  -0.016 -0.35 -0.00    +0.000 C 
DOCKED: ENDROOT
DOCKED: BRANCH   1   3
DOCKED: ATOM      2  O   UNL     1      29.195 -15.348  -1.202 -0.15 -0.00    +0.000 OA
DOCKED: ATOM      3  C   UNL     1      28.624 -15.391  -0.079 -0.23 -0.00    +0.000 C 
DOCKED: ATOM      4  N   UNL     1      29.379 -15.231   1.133 -0.01 -0.00    +0.000 N 
DOCKED: ATOM      5  H   UNL     1      28.882 -15.120   1.976 -1.54 -0.00    +0.000 HD
DOCKED: BRANCH   4   6
DOCKED: ATOM      6  C   UNL     1      30.815 -15.225   1.190 -0.10 -0.00    +0.000 A 
DOCKED: ATOM      7  C   UNL     1      31.535 -14.034   1.405 -0.06 -0.00    +0.000 A 
DOCKED: ATOM      8  C   UNL     1      32.933 -14.053   1.437 -0.03 -0.00    +0.000 A 
DOCKED: ATOM      9  C   UNL     1      33.623 -15.252   1.240 -0.03 -0.00    +0.000 A 
DOCKED: ATOM     10  C   UNL     1      32.917 -16.433   1.002 -0.07 -0.00    +0.000 A 
DOCKED: ATOM     11  C   UNL     1      31.520 -16.419   0.969 -0.12 -0.00    +0.000 A 
DOCKED: ENDBRANCH   4   6
DOCKED: ENDBRANCH   1   3
DOCKED: BRANCH   1  12
DOCKED: ATOM     12  C   UNL     1      26.717 -16.657  -1.056 -0.48 -0.00    +0.000 C 
DOCKED: BRANCH  12  13
DOCKED: ATOM     13  C   UNL     1      25.586 -17.543  -0.513 -0.65 -0.00    +0.000 C 
DOCKED: BRANCH  13  14
DOCKED: ATOM     14  C   UNL     1      24.371 -17.589  -1.451 -0.72 -0.00    +0.000 C 
DOCKED: BRANCH  14  15
DOCKED: ATOM     15  C   UNL     1      23.042 -17.354  -0.711 -0.75 -0.00    +0.000 C 
DOCKED: BRANCH  15  16
DOCKED: ATOM     16  C   UNL     1      22.449 -18.656  -0.157 -0.79 -0.00    +0.000 C 
DOCKED: BRANCH  16  17
DOCKED: ATOM     17  C   UNL     1      21.128 -18.980  -0.792 -0.88 -0.00    +0.000 C 
DOCKED: ATOM     18  N   UNL     1      21.073 -19.734  -2.005 -0.50 -0.00    +0.000 N 
DOCKED: ATOM     19  O   UNL     1      20.061 -18.607  -0.235 -1.52 -0.00    +0.000 OA
DOCKED: ATOM     20  H   UNL     1      21.909 -20.014  -2.444 -0.58 -0.00    +0.000 HD
DOCKED: BRANCH  18  21
DOCKED: ATOM     21  O   UNL     1      19.882 -20.069  -2.556 -1.67 -0.00    +0.000 OA
DOCKED: ATOM     22  H   UNL     1      19.163 -19.717  -2.009 -0.44 -0.00    +0.000 HD
DOCKED: ENDBRANCH  18  21
DOCKED: ENDBRANCH  16  17
DOCKED: ENDBRANCH  15  16
DOCKED: ENDBRANCH  14  15
DOCKED: ENDBRANCH  13  14
DOCKED: ENDBRANCH  12  13
DOCKED: ENDBRANCH   1  12
DOCKED: TORSDOF 9
DOCKED: TER
DOCKED: ENDMDL
________________________________________________________________________________


	BEGINNING GENETIC ALGORITHM DOCKING 77 of 100
Run: 77 Seed: 1712959872 802837805 [ Run 77 of 100 GA/GALS ]
Beginning LAMARCKIAN GENETIC ALGORITHM (LGA), with a maximum of 2500000 energy evaluations.

Final-Value: -14.152


	FINAL GENETIC ALGORITHM DOCKED STATE
	_______________________________________________


Detailed state:  trans 24.969 -17.184 0.935 quatxyzw -0.334425 0.138936 -0.690981 -0.625621 center 0.056 -0.347 0.144 ntor 9 22.5873 180.0000 179.7681 150.9012 171.9020 -171.1885 180.0000 129.2914 -66.0385
State:	 24.969 -17.184   0.935  -0.429  0.178 -0.886 -102.544     22.59  180.00  179.77  150.90  171.90 -171.19  180.00  129.29  -66.04

DOCKED: MODEL       77
DOCKED: USER    Run = 77
DOCKED: USER    DPF = ligand_dock.biased.dpf
DOCKED: USER  
DOCKED: USER    Estimated Free Energy of Binding    =  -10.10 kcal/mol  [=(1)+(2)+(3)-(4)]
DOCKED: USER    Estimated Inhibition Constant, Ki   =   39.26 nM (nanomolar)  [Temperature = 298.15 K]
DOCKED: USER    
DOCKED: USER    (1) Final Intermolecular Energy     =  -12.79 kcal/mol
DOCKED: USER        vdW + Hbond + desolv Energy     =  -12.79 kcal/mol
DOCKED: USER        Electrostatic Energy            =   +0.00 kcal/mol
DOCKED: USER    (2) Final Total Internal Energy     =   -1.36 kcal/mol
DOCKED: USER    (3) Torsional Free Energy           =   +2.68 kcal/mol
DOCKED: USER    (4) Unbound System's Energy  [=(2)] =   -1.36 kcal/mol
DOCKED: USER    
DOCKED: USER    
DOCKED: USER    NEWDPF move ligand.pdbqt
DOCKED: USER    NEWDPF about 0.056000 -0.347000 0.144000
DOCKED: USER    NEWDPF tran0 24.968516 -17.183740 0.934718
DOCKED: USER    NEWDPF quaternion0 -0.334425 0.138936 -0.690981 -0.625621
DOCKED: USER    NEWDPF axisangle0 -0.428680 0.178095 -0.885729 -102.544446
DOCKED: USER    NEWDPF quat0 -0.428680 0.178095 -0.885729 -102.544446
DOCKED: USER    NEWDPF dihe0 22.59 180.00 179.77 150.90 171.90 -171.19 180.00 129.29 -66.04 
DOCKED: USER  keepresnum = 1 
DOCKED: USER  
DOCKED: REMARK  Name = 
DOCKED: REMARK  9 active torsions:
DOCKED: REMARK  status: ('A' for Active; 'I' for Inactive)
DOCKED: REMARK    1  A    between atoms: C_2  and  C_10
DOCKED: REMARK    2  A    between atoms: N_3  and  C_4
DOCKED: REMARK    3  A    between atoms: C_10  and  C_11
DOCKED: REMARK    4  A    between atoms: C_11  and  C_12
DOCKED: REMARK    5  A    between atoms: C_12  and  C_13
DOCKED: REMARK    6  A    between atoms: C_13  and  C_14
DOCKED: REMARK    7  A    between atoms: C_14  and  C_15
DOCKED: REMARK    8  A    between atoms: C_15  and  C_16
DOCKED: REMARK    9  A    between atoms: N_17  and  O_18
DOCKED: REMARK                            x       y       z     vdW  Elec       q    Type
DOCKED: REMARK                         _______ _______ _______ _____ _____    ______ ____
DOCKED: USER                              x       y       z     vdW  Elec       q    Type
DOCKED: USER                           _______ _______ _______ _____ _____    ______ ____
DOCKED: ROOT
DOCKED: ATOM      1  C   UNL     1      27.340 -16.967  -0.169 -0.43 -0.00    +0.000 C 
DOCKED: ENDROOT
DOCKED: BRANCH   1   3
DOCKED: ATOM      2  O   UNL     1      26.260 -14.880  -0.575 -0.39 -0.00    +0.000 OA
DOCKED: ATOM      3  C   UNL     1      27.042 -15.537   0.166 -0.31 -0.00    +0.000 C 
DOCKED: ATOM      4  N   UNL     1      27.646 -14.926   1.317 -0.27 -0.00    +0.000 N 
DOCKED: ATOM      5  H   UNL     1      28.126 -15.508   1.950 -1.01 -0.00    +0.000 HD
DOCKED: BRANCH   4   6
DOCKED: ATOM      6  C   UNL     1      27.594 -13.519   1.601 -0.25 -0.00    +0.000 A 
DOCKED: ATOM      7  C   UNL     1      27.468 -13.041   2.919 -0.31 -0.00    +0.000 A 
DOCKED: ATOM      8  C   UNL     1      27.400 -11.666   3.166 -0.26 +0.00    +0.000 A 
DOCKED: ATOM      9  C   UNL     1      27.440 -10.760   2.104 -0.22 +0.00    +0.000 A 
DOCKED: ATOM     10  C   UNL     1      27.539 -11.226   0.791 -0.15 +0.00    +0.000 A 
DOCKED: ATOM     11  C   UNL     1      27.607 -12.600   0.540 -0.17 -0.00    +0.000 A 
DOCKED: ENDBRANCH   4   6
DOCKED: ENDBRANCH   1   3
DOCKED: BRANCH   1  12
DOCKED: ATOM     12  C   UNL     1      26.253 -17.886   0.400 -0.46 -0.00    +0.000 C 
DOCKED: BRANCH  12  13
DOCKED: ATOM     13  C   UNL     1      25.454 -18.554  -0.729 -0.58 -0.00    +0.000 C 
DOCKED: BRANCH  13  14
DOCKED: ATOM     14  C   UNL     1      24.818 -17.534  -1.686 -0.67 -0.00    +0.000 C 
DOCKED: BRANCH  14  15
DOCKED: ATOM     15  C   UNL     1      23.325 -17.300  -1.396 -0.54 -0.00    +0.000 C 
DOCKED: BRANCH  15  16
DOCKED: ATOM     16  C   UNL     1      22.730 -18.393  -0.499 -0.84 -0.00    +0.000 C 
DOCKED: BRANCH  16  17
DOCKED: ATOM     17  C   UNL     1      21.342 -18.771  -0.929 -0.84 -0.00    +0.000 C 
DOCKED: ATOM     18  N   UNL     1      21.142 -19.725  -1.974 -0.47 -0.00    +0.000 N 
DOCKED: ATOM     19  O   UNL     1      20.349 -18.263  -0.342 -1.84 -0.00    +0.000 OA
DOCKED: ATOM     20  H   UNL     1      21.920 -20.111  -2.438 -0.61 -0.00    +0.000 HD
DOCKED: BRANCH  18  21
DOCKED: ATOM     21  O   UNL     1      19.891 -20.103  -2.332 -1.75 -0.00    +0.000 OA
DOCKED: ATOM     22  H   UNL     1      19.259 -19.417  -2.068 -0.44 -0.00    +0.000 HD
DOCKED: ENDBRANCH  18  21
DOCKED: ENDBRANCH  16  17
DOCKED: ENDBRANCH  15  16
DOCKED: ENDBRANCH  14  15
DOCKED: ENDBRANCH  13  14
DOCKED: ENDBRANCH  12  13
DOCKED: ENDBRANCH   1  12
DOCKED: TORSDOF 9
DOCKED: TER
DOCKED: ENDMDL
________________________________________________________________________________


	BEGINNING GENETIC ALGORITHM DOCKING 78 of 100
Run: 78 Seed: 1851916762 174203022 [ Run 78 of 100 GA/GALS ]
Beginning LAMARCKIAN GENETIC ALGORITHM (LGA), with a maximum of 2500000 energy evaluations.

Final-Value: -13.374


	FINAL GENETIC ALGORITHM DOCKED STATE
	_______________________________________________


Detailed state:  trans 24.445 -14.481 -2.030 quatxyzw 0.435089 -0.145519 0.863111 0.211096 center 0.056 -0.347 0.144 ntor 9 -4.6179 -20.2596 112.2164 76.5755 177.5379 -162.5386 -33.5581 131.0189 65.2121
State:	 24.445 -14.481  -2.030   0.445 -0.149  0.883 155.627     -4.62  -20.26  112.22   76.58  177.54 -162.54  -33.56  131.02   65.21

DOCKED: MODEL       78
DOCKED: USER    Run = 78
DOCKED: USER    DPF = ligand_dock.biased.dpf
DOCKED: USER  
DOCKED: USER    Estimated Free Energy of Binding    =   -9.29 kcal/mol  [=(1)+(2)+(3)-(4)]
DOCKED: USER    Estimated Inhibition Constant, Ki   =  154.18 nM (nanomolar)  [Temperature = 298.15 K]
DOCKED: USER    
DOCKED: USER    (1) Final Intermolecular Energy     =  -11.98 kcal/mol
DOCKED: USER        vdW + Hbond + desolv Energy     =  -11.98 kcal/mol
DOCKED: USER        Electrostatic Energy            =   +0.00 kcal/mol
DOCKED: USER    (2) Final Total Internal Energy     =   -1.40 kcal/mol
DOCKED: USER    (3) Torsional Free Energy           =   +2.68 kcal/mol
DOCKED: USER    (4) Unbound System's Energy  [=(2)] =   -1.40 kcal/mol
DOCKED: USER    
DOCKED: USER    
DOCKED: USER    NEWDPF move ligand.pdbqt
DOCKED: USER    NEWDPF about 0.056000 -0.347000 0.144000
DOCKED: USER    NEWDPF tran0 24.445394 -14.480831 -2.030183
DOCKED: USER    NEWDPF quaternion0 0.435089 -0.145519 0.863111 0.211096
DOCKED: USER    NEWDPF axisangle0 0.445119 -0.148874 0.883009 155.626806
DOCKED: USER    NEWDPF quat0 0.445119 -0.148874 0.883009 155.626806
DOCKED: USER    NEWDPF dihe0 -4.62 -20.26 112.22 76.58 177.54 -162.54 -33.56 131.02 65.21 
DOCKED: USER  keepresnum = 1 
DOCKED: USER  
DOCKED: REMARK  Name = 
DOCKED: REMARK  9 active torsions:
DOCKED: REMARK  status: ('A' for Active; 'I' for Inactive)
DOCKED: REMARK    1  A    between atoms: C_2  and  C_10
DOCKED: REMARK    2  A    between atoms: N_3  and  C_4
DOCKED: REMARK    3  A    between atoms: C_10  and  C_11
DOCKED: REMARK    4  A    between atoms: C_11  and  C_12
DOCKED: REMARK    5  A    between atoms: C_12  and  C_13
DOCKED: REMARK    6  A    between atoms: C_13  and  C_14
DOCKED: REMARK    7  A    between atoms: C_14  and  C_15
DOCKED: REMARK    8  A    between atoms: C_15  and  C_16
DOCKED: REMARK    9  A    between atoms: N_17  and  O_18
DOCKED: REMARK                            x       y       z     vdW  Elec       q    Type
DOCKED: REMARK                         _______ _______ _______ _____ _____    ______ ____
DOCKED: USER                              x       y       z     vdW  Elec       q    Type
DOCKED: USER                           _______ _______ _______ _____ _____    ______ ____
DOCKED: ROOT
DOCKED: ATOM      1  C   UNL     1      25.907 -16.421  -3.024 -0.30 -0.00    +0.000 C 
DOCKED: ENDROOT
DOCKED: BRANCH   1   3
DOCKED: ATOM      2  O   UNL     1      27.293 -14.563  -2.466 -0.24 -0.00    +0.000 OA
DOCKED: ATOM      3  C   UNL     1      26.731 -15.222  -3.382 -0.44 -0.00    +0.000 C 
DOCKED: ATOM      4  N   UNL     1      26.871 -14.830  -4.757 -0.45 -0.00    +0.000 N 
DOCKED: ATOM      5  H   UNL     1      26.545 -15.450  -5.450 -0.07 +0.00    +0.000 HD
DOCKED: BRANCH   4   6
DOCKED: ATOM      6  C   UNL     1      27.455 -13.589  -5.184 -0.27 -0.00    +0.000 A 
DOCKED: ATOM      7  C   UNL     1      26.948 -12.350  -4.747 -0.22 -0.00    +0.000 A 
DOCKED: ATOM      8  C   UNL     1      27.524 -11.157  -5.194 -0.12 -0.00    +0.000 A 
DOCKED: ATOM      9  C   UNL     1      28.597 -11.187  -6.089 -0.08 -0.00    +0.000 A 
DOCKED: ATOM     10  C   UNL     1      29.090 -12.411  -6.547 -0.15 -0.00    +0.000 A 
DOCKED: ATOM     11  C   UNL     1      28.517 -13.606  -6.103 -0.26 -0.00    +0.000 A 
DOCKED: ENDBRANCH   4   6
DOCKED: ENDBRANCH   1   3
DOCKED: BRANCH   1  12
DOCKED: ATOM     12  C   UNL     1      24.722 -16.010  -2.143 -0.41 -0.00    +0.000 C 
DOCKED: BRANCH  12  13
DOCKED: ATOM     13  C   UNL     1      24.843 -16.624  -0.740 -0.55 -0.00    +0.000 C 
DOCKED: BRANCH  13  14
DOCKED: ATOM     14  C   UNL     1      24.994 -18.152  -0.776 -0.72 -0.00    +0.000 C 
DOCKED: BRANCH  14  15
DOCKED: ATOM     15  C   UNL     1      23.643 -18.884  -0.691 -0.79 -0.00    +0.000 C 
DOCKED: BRANCH  15  16
DOCKED: ATOM     16  C   UNL     1      22.490 -17.934  -0.342 -0.82 -0.00    +0.000 C 
DOCKED: BRANCH  16  17
DOCKED: ATOM     17  C   UNL     1      21.216 -18.329  -1.031 -0.71 -0.00    +0.000 C 
DOCKED: ATOM     18  N   UNL     1      21.074 -19.633  -1.599 -0.70 -0.00    +0.000 N 
DOCKED: ATOM     19  O   UNL     1      20.257 -17.514  -1.082 -2.03 -0.00    +0.000 OA
DOCKED: ATOM     20  H   UNL     1      21.829 -20.264  -1.567 -0.37 -0.00    +0.000 HD
DOCKED: BRANCH  18  21
DOCKED: ATOM     21  O   UNL     1      19.909 -20.010  -2.179 -1.81 -0.00    +0.000 OA
DOCKED: ATOM     22  H   UNL     1      19.250 -19.308  -2.063 -0.45 -0.00    +0.000 HD
DOCKED: ENDBRANCH  18  21
DOCKED: ENDBRANCH  16  17
DOCKED: ENDBRANCH  15  16
DOCKED: ENDBRANCH  14  15
DOCKED: ENDBRANCH  13  14
DOCKED: ENDBRANCH  12  13
DOCKED: ENDBRANCH   1  12
DOCKED: TORSDOF 9
DOCKED: TER
DOCKED: ENDMDL
________________________________________________________________________________


	BEGINNING GENETIC ALGORITHM DOCKING 79 of 100
Run: 79 Seed: 55686198 325416185 [ Run 79 of 100 GA/GALS ]
Beginning LAMARCKIAN GENETIC ALGORITHM (LGA), with a maximum of 2500000 energy evaluations.

Final-Value: -13.116


	FINAL GENETIC ALGORITHM DOCKED STATE
	_______________________________________________


Detailed state:  trans 25.608 -17.094 -1.039 quatxyzw -0.283418 0.548764 -0.235413 -0.750409 center 0.056 -0.347 0.144 ntor 9 21.4612 152.1417 -54.2446 -180.0000 -176.8633 154.4901 -179.9240 92.9563 -116.2776
State:	 25.608 -17.094  -1.039  -0.429  0.830 -0.356 -82.748     21.46  152.14  -54.24 -180.00 -176.86  154.49 -179.92   92.96 -116.28

DOCKED: MODEL       79
DOCKED: USER    Run = 79
DOCKED: USER    DPF = ligand_dock.biased.dpf
DOCKED: USER  
DOCKED: USER    Estimated Free Energy of Binding    =   -9.01 kcal/mol  [=(1)+(2)+(3)-(4)]
DOCKED: USER    Estimated Inhibition Constant, Ki   =  247.87 nM (nanomolar)  [Temperature = 298.15 K]
DOCKED: USER    
DOCKED: USER    (1) Final Intermolecular Energy     =  -11.70 kcal/mol
DOCKED: USER        vdW + Hbond + desolv Energy     =  -11.70 kcal/mol
DOCKED: USER        Electrostatic Energy            =   +0.00 kcal/mol
DOCKED: USER    (2) Final Total Internal Energy     =   -1.42 kcal/mol
DOCKED: USER    (3) Torsional Free Energy           =   +2.68 kcal/mol
DOCKED: USER    (4) Unbound System's Energy  [=(2)] =   -1.42 kcal/mol
DOCKED: USER    
DOCKED: USER    
DOCKED: USER    NEWDPF move ligand.pdbqt
DOCKED: USER    NEWDPF about 0.056000 -0.347000 0.144000
DOCKED: USER    NEWDPF tran0 25.608197 -17.094127 -1.038629
DOCKED: USER    NEWDPF quaternion0 -0.283418 0.548764 -0.235413 -0.750409
DOCKED: USER    NEWDPF axisangle0 -0.428788 0.830235 -0.356161 -82.748413
DOCKED: USER    NEWDPF quat0 -0.428788 0.830235 -0.356161 -82.748413
DOCKED: USER    NEWDPF dihe0 21.46 152.14 -54.24 -180.00 -176.86 154.49 -179.92 92.96 -116.28 
DOCKED: USER  keepresnum = 1 
DOCKED: USER  
DOCKED: REMARK  Name = 
DOCKED: REMARK  9 active torsions:
DOCKED: REMARK  status: ('A' for Active; 'I' for Inactive)
DOCKED: REMARK    1  A    between atoms: C_2  and  C_10
DOCKED: REMARK    2  A    between atoms: N_3  and  C_4
DOCKED: REMARK    3  A    between atoms: C_10  and  C_11
DOCKED: REMARK    4  A    between atoms: C_11  and  C_12
DOCKED: REMARK    5  A    between atoms: C_12  and  C_13
DOCKED: REMARK    6  A    between atoms: C_13  and  C_14
DOCKED: REMARK    7  A    between atoms: C_14  and  C_15
DOCKED: REMARK    8  A    between atoms: C_15  and  C_16
DOCKED: REMARK    9  A    between atoms: N_17  and  O_18
DOCKED: REMARK                            x       y       z     vdW  Elec       q    Type
DOCKED: REMARK                         _______ _______ _______ _____ _____    ______ ____
DOCKED: USER                              x       y       z     vdW  Elec       q    Type
DOCKED: USER                           _______ _______ _______ _____ _____    ______ ____
DOCKED: ROOT
DOCKED: ATOM      1  C   UNL     1      26.277 -14.835  -2.196 -0.39 -0.00    +0.000 C 
DOCKED: ENDROOT
DOCKED: BRANCH   1   3
DOCKED: ATOM      2  O   UNL     1      25.136 -14.210  -0.197 -0.12 -0.00    +0.000 OA
DOCKED: ATOM      3  C   UNL     1      26.247 -14.427  -0.754 -0.34 -0.00    +0.000 C 
DOCKED: ATOM      4  N   UNL     1      27.474 -14.283  -0.021 -0.23 -0.00    +0.000 N 
DOCKED: ATOM      5  H   UNL     1      28.304 -14.604  -0.442 +0.00 -0.00    +0.000 HD
DOCKED: BRANCH   4   6
DOCKED: ATOM      6  C   UNL     1      27.564 -13.698   1.288 -0.25 -0.00    +0.000 A 
DOCKED: ATOM      7  C   UNL     1      27.965 -14.457   2.404 -0.24 -0.00    +0.000 A 
DOCKED: ATOM      8  C   UNL     1      28.026 -13.867   3.671 -0.40 -0.00    +0.000 A 
DOCKED: ATOM      9  C   UNL     1      27.675 -12.525   3.838 -0.29 -0.00    +0.000 A 
DOCKED: ATOM     10  C   UNL     1      27.252 -11.772   2.740 -0.26 +0.00    +0.000 A 
DOCKED: ATOM     11  C   UNL     1      27.189 -12.357   1.472 -0.24 -0.00    +0.000 A 
DOCKED: ENDBRANCH   4   6
DOCKED: ENDBRANCH   1   3
DOCKED: BRANCH   1  12
DOCKED: ATOM     12  C   UNL     1      26.072 -16.348  -2.326 -0.51 -0.00    +0.000 C 
DOCKED: BRANCH  12  13
DOCKED: ATOM     13  C   UNL     1      24.684 -16.760  -1.811 -0.62 -0.00    +0.000 C 
DOCKED: BRANCH  13  14
DOCKED: ATOM     14  C   UNL     1      24.702 -17.176  -0.333 -0.52 -0.00    +0.000 C 
DOCKED: BRANCH  14  15
DOCKED: ATOM     15  C   UNL     1      23.912 -18.470  -0.072 -0.67 -0.00    +0.000 C 
DOCKED: BRANCH  15  16
DOCKED: ATOM     16  C   UNL     1      23.200 -18.979  -1.332 -0.79 -0.00    +0.000 C 
DOCKED: BRANCH  16  17
DOCKED: ATOM     17  C   UNL     1      21.708 -18.857  -1.215 -0.74 -0.00    +0.000 C 
DOCKED: ATOM     18  N   UNL     1      20.851 -19.778  -1.894 -0.64 -0.00    +0.000 N 
DOCKED: ATOM     19  O   UNL     1      21.212 -17.954  -0.490 -1.86 -0.00    +0.000 OA
DOCKED: ATOM     20  H   UNL     1      21.242 -20.476  -2.469 -0.52 -0.00    +0.000 HD
DOCKED: BRANCH  18  21
DOCKED: ATOM     21  O   UNL     1      19.506 -19.701  -1.753 -1.61 -0.00    +0.000 OA
DOCKED: ATOM     22  H   UNL     1      19.263 -18.809  -1.460 -0.46 -0.00    +0.000 HD
DOCKED: ENDBRANCH  18  21
DOCKED: ENDBRANCH  16  17
DOCKED: ENDBRANCH  15  16
DOCKED: ENDBRANCH  14  15
DOCKED: ENDBRANCH  13  14
DOCKED: ENDBRANCH  12  13
DOCKED: ENDBRANCH   1  12
DOCKED: TORSDOF 9
DOCKED: TER
DOCKED: ENDMDL
________________________________________________________________________________


	BEGINNING GENETIC ALGORITHM DOCKING 80 of 100
Run: 80 Seed: 1007592083 1733303858 [ Run 80 of 100 GA/GALS ]
Beginning LAMARCKIAN GENETIC ALGORITHM (LGA), with a maximum of 2500000 energy evaluations.

Final-Value: -13.485


	FINAL GENETIC ALGORITHM DOCKED STATE
	_______________________________________________


Detailed state:  trans 28.469 -15.750 -1.786 quatxyzw -0.615604 0.725152 -0.291141 0.102095 center 0.056 -0.347 0.144 ntor 9 6.0810 164.2445 -105.1345 173.0949 93.8167 136.2915 180.0000 168.5233 5.1771
State:	 28.469 -15.750  -1.786  -0.619  0.729 -0.293 168.280      6.08  164.24 -105.13  173.09   93.82  136.29  180.00  168.52    5.18

DOCKED: MODEL       80
DOCKED: USER    Run = 80
DOCKED: USER    DPF = ligand_dock.biased.dpf
DOCKED: USER  
DOCKED: USER    Estimated Free Energy of Binding    =   -9.56 kcal/mol  [=(1)+(2)+(3)-(4)]
DOCKED: USER    Estimated Inhibition Constant, Ki   =   97.60 nM (nanomolar)  [Temperature = 298.15 K]
DOCKED: USER    
DOCKED: USER    (1) Final Intermolecular Energy     =  -12.25 kcal/mol
DOCKED: USER        vdW + Hbond + desolv Energy     =  -12.25 kcal/mol
DOCKED: USER        Electrostatic Energy            =   +0.00 kcal/mol
DOCKED: USER    (2) Final Total Internal Energy     =   -1.24 kcal/mol
DOCKED: USER    (3) Torsional Free Energy           =   +2.68 kcal/mol
DOCKED: USER    (4) Unbound System's Energy  [=(2)] =   -1.24 kcal/mol
DOCKED: USER    
DOCKED: USER    
DOCKED: USER    NEWDPF move ligand.pdbqt
DOCKED: USER    NEWDPF about 0.056000 -0.347000 0.144000
DOCKED: USER    NEWDPF tran0 28.469258 -15.750235 -1.786077
DOCKED: USER    NEWDPF quaternion0 -0.615604 0.725152 -0.291141 0.102095
DOCKED: USER    NEWDPF axisangle0 -0.618838 0.728961 -0.292670 168.280370
DOCKED: USER    NEWDPF quat0 -0.618838 0.728961 -0.292670 168.280370
DOCKED: USER    NEWDPF dihe0 6.08 164.24 -105.13 173.09 93.82 136.29 180.00 168.52 5.18 
DOCKED: USER  keepresnum = 1 
DOCKED: USER  
DOCKED: REMARK  Name = 
DOCKED: REMARK  9 active torsions:
DOCKED: REMARK  status: ('A' for Active; 'I' for Inactive)
DOCKED: REMARK    1  A    between atoms: C_2  and  C_10
DOCKED: REMARK    2  A    between atoms: N_3  and  C_4
DOCKED: REMARK    3  A    between atoms: C_10  and  C_11
DOCKED: REMARK    4  A    between atoms: C_11  and  C_12
DOCKED: REMARK    5  A    between atoms: C_12  and  C_13
DOCKED: REMARK    6  A    between atoms: C_13  and  C_14
DOCKED: REMARK    7  A    between atoms: C_14  and  C_15
DOCKED: REMARK    8  A    between atoms: C_15  and  C_16
DOCKED: REMARK    9  A    between atoms: N_17  and  O_18
DOCKED: REMARK                            x       y       z     vdW  Elec       q    Type
DOCKED: REMARK                         _______ _______ _______ _____ _____    ______ ____
DOCKED: USER                              x       y       z     vdW  Elec       q    Type
DOCKED: USER                           _______ _______ _______ _____ _____    ______ ____
DOCKED: ROOT
DOCKED: ATOM      1  C   UNL     1      26.391 -15.554  -3.377 -0.49 -0.00    +0.000 C 
DOCKED: ENDROOT
DOCKED: BRANCH   1   3
DOCKED: ATOM      2  O   UNL     1      27.665 -13.573  -3.752 -0.20 -0.00    +0.000 OA
DOCKED: ATOM      3  C   UNL     1      27.410 -14.750  -4.127 -0.37 -0.00    +0.000 C 
DOCKED: ATOM      4  N   UNL     1      28.083 -15.319  -5.261 -0.40 -0.00    +0.000 N 
DOCKED: ATOM      5  H   UNL     1      27.970 -16.283  -5.430 -0.04 +0.00    +0.000 HD
DOCKED: BRANCH   4   6
DOCKED: ATOM      6  C   UNL     1      28.910 -14.569  -6.165 -0.33 -0.00    +0.000 A 
DOCKED: ATOM      7  C   UNL     1      30.224 -14.976  -6.467 -0.25 -0.00    +0.000 A 
DOCKED: ATOM      8  C   UNL     1      31.014 -14.217  -7.335 -0.17 -0.00    +0.000 A 
DOCKED: ATOM      9  C   UNL     1      30.510 -13.041  -7.896 -0.15 -0.00    +0.000 A 
DOCKED: ATOM     10  C   UNL     1      29.216 -12.616  -7.582 -0.21 -0.00    +0.000 A 
DOCKED: ATOM     11  C   UNL     1      28.423 -13.372  -6.715 -0.24 -0.00    +0.000 A 
DOCKED: ENDBRANCH   4   6
DOCKED: ENDBRANCH   1   3
DOCKED: BRANCH   1  12
DOCKED: ATOM     12  C   UNL     1      27.034 -16.228  -2.160 -0.39 -0.00    +0.000 C 
DOCKED: BRANCH  12  13
DOCKED: ATOM     13  C   UNL     1      26.032 -17.151  -1.452 -0.56 -0.00    +0.000 C 
DOCKED: BRANCH  13  14
DOCKED: ATOM     14  C   UNL     1      24.577 -16.854  -1.843 -0.61 -0.00    +0.000 C 
DOCKED: BRANCH  14  15
DOCKED: ATOM     15  C   UNL     1      23.576 -17.239  -0.739 -0.72 -0.00    +0.000 C 
DOCKED: BRANCH  15  16
DOCKED: ATOM     16  C   UNL     1      23.011 -18.652  -0.935 -0.83 -0.00    +0.000 C 
DOCKED: BRANCH  16  17
DOCKED: ATOM     17  C   UNL     1      21.523 -18.634  -1.128 -0.74 -0.00    +0.000 C 
DOCKED: ATOM     18  N   UNL     1      20.861 -19.733  -1.757 -0.73 -0.00    +0.000 N 
DOCKED: ATOM     19  O   UNL     1      20.852 -17.654  -0.706 -2.15 -0.00    +0.000 OA
DOCKED: ATOM     20  H   UNL     1      21.389 -20.492  -2.096 -0.46 -0.00    +0.000 HD
DOCKED: BRANCH  18  21
DOCKED: ATOM     21  O   UNL     1      19.513 -19.742  -1.890 -1.65 -0.00    +0.000 OA
DOCKED: ATOM     22  H   UNL     1      19.154 -18.890  -1.597 -0.54 -0.00    +0.000 HD
DOCKED: ENDBRANCH  18  21
DOCKED: ENDBRANCH  16  17
DOCKED: ENDBRANCH  15  16
DOCKED: ENDBRANCH  14  15
DOCKED: ENDBRANCH  13  14
DOCKED: ENDBRANCH  12  13
DOCKED: ENDBRANCH   1  12
DOCKED: TORSDOF 9
DOCKED: TER
DOCKED: ENDMDL
________________________________________________________________________________


	BEGINNING GENETIC ALGORITHM DOCKING 81 of 100
Run: 81 Seed: 1410289772 1669973487 [ Run 81 of 100 GA/GALS ]
Beginning LAMARCKIAN GENETIC ALGORITHM (LGA), with a maximum of 2500000 energy evaluations.

Final-Value: -14.981


	FINAL GENETIC ALGORITHM DOCKED STATE
	_______________________________________________


Detailed state:  trans 25.473 -14.275 -0.715 quatxyzw 0.230838 0.279099 -0.749208 -0.554531 center 0.056 -0.347 0.144 ntor 9 34.7698 20.1527 -157.6537 49.7887 -64.5812 60.6314 -132.1693 -38.1369 80.4392
State:	 25.473 -14.275  -0.715   0.277  0.335 -0.900 -112.643     34.77   20.15 -157.65   49.79  -64.58   60.63 -132.17  -38.14   80.44

DOCKED: MODEL       81
DOCKED: USER    Run = 81
DOCKED: USER    DPF = ligand_dock.biased.dpf
DOCKED: USER  
DOCKED: USER    Estimated Free Energy of Binding    =  -11.31 kcal/mol  [=(1)+(2)+(3)-(4)]
DOCKED: USER    Estimated Inhibition Constant, Ki   =    5.12 nM (nanomolar)  [Temperature = 298.15 K]
DOCKED: USER    
DOCKED: USER    (1) Final Intermolecular Energy     =  -14.00 kcal/mol
DOCKED: USER        vdW + Hbond + desolv Energy     =  -14.00 kcal/mol
DOCKED: USER        Electrostatic Energy            =   +0.00 kcal/mol
DOCKED: USER    (2) Final Total Internal Energy     =   -0.99 kcal/mol
DOCKED: USER    (3) Torsional Free Energy           =   +2.68 kcal/mol
DOCKED: USER    (4) Unbound System's Energy  [=(2)] =   -0.99 kcal/mol
DOCKED: USER    
DOCKED: USER    
DOCKED: USER    NEWDPF move ligand.pdbqt
DOCKED: USER    NEWDPF about 0.056000 -0.347000 0.144000
DOCKED: USER    NEWDPF tran0 25.473177 -14.275042 -0.715066
DOCKED: USER    NEWDPF quaternion0 0.230838 0.279099 -0.749208 -0.554531
DOCKED: USER    NEWDPF axisangle0 0.277395 0.335390 -0.900314 -112.643188
DOCKED: USER    NEWDPF quat0 0.277395 0.335390 -0.900314 -112.643188
DOCKED: USER    NEWDPF dihe0 34.77 20.15 -157.65 49.79 -64.58 60.63 -132.17 -38.14 80.44 
DOCKED: USER  keepresnum = 1 
DOCKED: USER  
DOCKED: REMARK  Name = 
DOCKED: REMARK  9 active torsions:
DOCKED: REMARK  status: ('A' for Active; 'I' for Inactive)
DOCKED: REMARK    1  A    between atoms: C_2  and  C_10
DOCKED: REMARK    2  A    between atoms: N_3  and  C_4
DOCKED: REMARK    3  A    between atoms: C_10  and  C_11
DOCKED: REMARK    4  A    between atoms: C_11  and  C_12
DOCKED: REMARK    5  A    between atoms: C_12  and  C_13
DOCKED: REMARK    6  A    between atoms: C_13  and  C_14
DOCKED: REMARK    7  A    between atoms: C_14  and  C_15
DOCKED: REMARK    8  A    between atoms: C_15  and  C_16
DOCKED: REMARK    9  A    between atoms: N_17  and  O_18
DOCKED: REMARK                            x       y       z     vdW  Elec       q    Type
DOCKED: REMARK                         _______ _______ _______ _____ _____    ______ ____
DOCKED: USER                              x       y       z     vdW  Elec       q    Type
DOCKED: USER                           _______ _______ _______ _____ _____    ______ ____
DOCKED: ROOT
DOCKED: ATOM      1  C   UNL     1      27.954 -14.983  -0.233 -0.26 -0.00    +0.000 C 
DOCKED: ENDROOT
DOCKED: BRANCH   1   3
DOCKED: ATOM      2  O   UNL     1      26.808 -13.236   0.917 -0.33 -0.00    +0.000 OA
DOCKED: ATOM      3  C   UNL     1      27.633 -14.187   0.996 -0.28 -0.00    +0.000 C 
DOCKED: ATOM      4  N   UNL     1      28.265 -14.505   2.246 -0.28 -0.00    +0.000 N 
DOCKED: ATOM      5  H   UNL     1      28.784 -15.341   2.301 -1.79 -0.00    +0.000 HD
DOCKED: BRANCH   4   6
DOCKED: ATOM      6  C   UNL     1      28.189 -13.680   3.419 -0.34 -0.00    +0.000 A 
DOCKED: ATOM      7  C   UNL     1      27.781 -12.335   3.345 -0.27 -0.00    +0.000 A 
DOCKED: ATOM      8  C   UNL     1      27.734 -11.548   4.500 -0.30 +0.00    +0.000 A 
DOCKED: ATOM      9  C   UNL     1      28.107 -12.089   5.733 -0.38 +0.00    +0.000 A 
DOCKED: ATOM     10  C   UNL     1      28.536 -13.417   5.812 -0.40 -0.00    +0.000 A 
DOCKED: ATOM     11  C   UNL     1      28.585 -14.206   4.660 -0.47 -0.00    +0.000 A 
DOCKED: ENDBRANCH   4   6
DOCKED: ENDBRANCH   1   3
DOCKED: BRANCH   1  12
DOCKED: ATOM     12  C   UNL     1      26.702 -15.152  -1.100 -0.35 -0.00    +0.000 C 
DOCKED: BRANCH  12  13
DOCKED: ATOM     13  C   UNL     1      26.068 -16.534  -0.883 -0.52 -0.00    +0.000 C 
DOCKED: BRANCH  13  14
DOCKED: ATOM     14  C   UNL     1      24.540 -16.467  -0.741 -0.48 -0.00    +0.000 C 
DOCKED: BRANCH  14  15
DOCKED: ATOM     15  C   UNL     1      23.816 -17.494  -1.630 -0.60 -0.00    +0.000 C 
DOCKED: BRANCH  15  16
DOCKED: ATOM     16  C   UNL     1      23.216 -18.646  -0.814 -0.83 -0.00    +0.000 C 
DOCKED: BRANCH  16  17
DOCKED: ATOM     17  C   UNL     1      21.722 -18.705  -0.952 -0.83 -0.00    +0.000 C 
DOCKED: ATOM     18  N   UNL     1      21.107 -19.730  -1.735 -0.64 -0.00    +0.000 N 
DOCKED: ATOM     19  O   UNL     1      21.007 -17.862  -0.347 -1.95 +0.00    +0.000 OA
DOCKED: ATOM     20  H   UNL     1      21.669 -20.381  -2.215 -0.54 -0.00    +0.000 HD
DOCKED: BRANCH  18  21
DOCKED: ATOM     21  O   UNL     1      19.758 -19.815  -1.823 -1.77 -0.00    +0.000 OA
DOCKED: ATOM     22  H   UNL     1      19.377 -18.923  -1.812 -0.39 -0.00    +0.000 HD
DOCKED: ENDBRANCH  18  21
DOCKED: ENDBRANCH  16  17
DOCKED: ENDBRANCH  15  16
DOCKED: ENDBRANCH  14  15
DOCKED: ENDBRANCH  13  14
DOCKED: ENDBRANCH  12  13
DOCKED: ENDBRANCH   1  12
DOCKED: TORSDOF 9
DOCKED: TER
DOCKED: ENDMDL
________________________________________________________________________________


	BEGINNING GENETIC ALGORITHM DOCKING 82 of 100
Run: 82 Seed: 539306449 1106171466 [ Run 82 of 100 GA/GALS ]
Beginning LAMARCKIAN GENETIC ALGORITHM (LGA), with a maximum of 2500000 energy evaluations.

Final-Value: -14.327


	FINAL GENETIC ALGORITHM DOCKED STATE
	_______________________________________________


Detailed state:  trans 26.788 -16.206 -1.452 quatxyzw 0.271932 -0.853049 0.327249 -0.302106 center 0.056 -0.347 0.144 ntor 9 23.3935 -96.7410 -22.0397 142.0618 -171.4842 45.6915 50.5750 19.2723 115.2181
State:	 26.788 -16.206  -1.452   0.285 -0.895  0.343 -144.832     23.39  -96.74  -22.04  142.06 -171.48   45.69   50.57   19.27  115.22

DOCKED: MODEL       82
DOCKED: USER    Run = 82
DOCKED: USER    DPF = ligand_dock.biased.dpf
DOCKED: USER  
DOCKED: USER    Estimated Free Energy of Binding    =  -10.22 kcal/mol  [=(1)+(2)+(3)-(4)]
DOCKED: USER    Estimated Inhibition Constant, Ki   =   32.05 nM (nanomolar)  [Temperature = 298.15 K]
DOCKED: USER    
DOCKED: USER    (1) Final Intermolecular Energy     =  -12.91 kcal/mol
DOCKED: USER        vdW + Hbond + desolv Energy     =  -12.91 kcal/mol
DOCKED: USER        Electrostatic Energy            =   +0.00 kcal/mol
DOCKED: USER    (2) Final Total Internal Energy     =   -1.42 kcal/mol
DOCKED: USER    (3) Torsional Free Energy           =   +2.68 kcal/mol
DOCKED: USER    (4) Unbound System's Energy  [=(2)] =   -1.42 kcal/mol
DOCKED: USER    
DOCKED: USER    
DOCKED: USER    NEWDPF move ligand.pdbqt
DOCKED: USER    NEWDPF about 0.056000 -0.347000 0.144000
DOCKED: USER    NEWDPF tran0 26.787711 -16.206211 -1.452457
DOCKED: USER    NEWDPF quaternion0 0.271932 -0.853049 0.327249 -0.302106
DOCKED: USER    NEWDPF axisangle0 0.285261 -0.894862 0.343290 -144.831737
DOCKED: USER    NEWDPF quat0 0.285261 -0.894862 0.343290 -144.831737
DOCKED: USER    NEWDPF dihe0 23.39 -96.74 -22.04 142.06 -171.48 45.69 50.57 19.27 115.22 
DOCKED: USER  keepresnum = 1 
DOCKED: USER  
DOCKED: REMARK  Name = 
DOCKED: REMARK  9 active torsions:
DOCKED: REMARK  status: ('A' for Active; 'I' for Inactive)
DOCKED: REMARK    1  A    between atoms: C_2  and  C_10
DOCKED: REMARK    2  A    between atoms: N_3  and  C_4
DOCKED: REMARK    3  A    between atoms: C_10  and  C_11
DOCKED: REMARK    4  A    between atoms: C_11  and  C_12
DOCKED: REMARK    5  A    between atoms: C_12  and  C_13
DOCKED: REMARK    6  A    between atoms: C_13  and  C_14
DOCKED: REMARK    7  A    between atoms: C_14  and  C_15
DOCKED: REMARK    8  A    between atoms: C_15  and  C_16
DOCKED: REMARK    9  A    between atoms: N_17  and  O_18
DOCKED: REMARK                            x       y       z     vdW  Elec       q    Type
DOCKED: REMARK                         _______ _______ _______ _____ _____    ______ ____
DOCKED: USER                              x       y       z     vdW  Elec       q    Type
DOCKED: USER                           _______ _______ _______ _____ _____    ______ ____
DOCKED: ROOT
DOCKED: ATOM      1  C   UNL     1      25.247 -15.035  -3.226 -0.48 -0.00    +0.000 C 
DOCKED: ENDROOT
DOCKED: BRANCH   1   3
DOCKED: ATOM      2  O   UNL     1      26.267 -15.620  -5.301 -1.20 +0.00    +0.000 OA
DOCKED: ATOM      3  C   UNL     1      26.429 -15.411  -4.068 -0.52 -0.00    +0.000 C 
DOCKED: ATOM      4  N   UNL     1      27.729 -15.534  -3.469 -0.29 -0.00    +0.000 N 
DOCKED: ATOM      5  H   UNL     1      27.843 -15.219  -2.543 +0.00 -0.00    +0.000 HD
DOCKED: BRANCH   4   6
DOCKED: ATOM      6  C   UNL     1      28.873 -16.090  -4.138 -0.24 -0.00    +0.000 A 
DOCKED: ATOM      7  C   UNL     1      29.705 -17.033  -3.506 -0.21 -0.00    +0.000 A 
DOCKED: ATOM      8  C   UNL     1      30.824 -17.543  -4.173 -0.19 -0.00    +0.000 A 
DOCKED: ATOM      9  C   UNL     1      31.130 -17.107  -5.465 -0.19 -0.00    +0.000 A 
DOCKED: ATOM     10  C   UNL     1      30.323 -16.153  -6.089 -0.28 -0.00    +0.000 A 
DOCKED: ATOM     11  C   UNL     1      29.205 -15.640  -5.426 -0.31 -0.00    +0.000 A 
DOCKED: ENDBRANCH   4   6
DOCKED: ENDBRANCH   1   3
DOCKED: BRANCH   1  12
DOCKED: ATOM     12  C   UNL     1      25.392 -15.616  -1.815 -0.48 -0.00    +0.000 C 
DOCKED: BRANCH  12  13
DOCKED: ATOM     13  C   UNL     1      25.357 -17.151  -1.848 -0.61 -0.00    +0.000 C 
DOCKED: BRANCH  13  14
DOCKED: ATOM     14  C   UNL     1      25.173 -17.767  -0.453 -0.69 -0.00    +0.000 C 
DOCKED: BRANCH  14  15
DOCKED: ATOM     15  C   UNL     1      23.858 -18.556  -0.322 -0.75 -0.00    +0.000 C 
DOCKED: BRANCH  15  16
DOCKED: ATOM     16  C   UNL     1      23.051 -18.556  -1.627 -0.62 -0.00    +0.000 C 
DOCKED: BRANCH  16  17
DOCKED: ATOM     17  C   UNL     1      21.574 -18.631  -1.367 -0.47 -0.00    +0.000 C 
DOCKED: ATOM     18  N   UNL     1      20.810 -19.743  -1.839 -0.73 -0.00    +0.000 N 
DOCKED: ATOM     19  O   UNL     1      21.012 -17.720  -0.702 -2.12 -0.00    +0.000 OA
DOCKED: ATOM     20  H   UNL     1      21.250 -20.448  -2.368 -0.51 -0.00    +0.000 HD
DOCKED: BRANCH  18  21
DOCKED: ATOM     21  O   UNL     1      19.487 -19.837  -1.565 -1.50 -0.00    +0.000 OA
DOCKED: ATOM     22  H   UNL     1      19.132 -18.954  -1.383 -0.53 -0.00    +0.000 HD
DOCKED: ENDBRANCH  18  21
DOCKED: ENDBRANCH  16  17
DOCKED: ENDBRANCH  15  16
DOCKED: ENDBRANCH  14  15
DOCKED: ENDBRANCH  13  14
DOCKED: ENDBRANCH  12  13
DOCKED: ENDBRANCH   1  12
DOCKED: TORSDOF 9
DOCKED: TER
DOCKED: ENDMDL
________________________________________________________________________________


	BEGINNING GENETIC ALGORITHM DOCKING 83 of 100
Run: 83 Seed: 387921589 1885962635 [ Run 83 of 100 GA/GALS ]
Beginning LAMARCKIAN GENETIC ALGORITHM (LGA), with a maximum of 2500000 energy evaluations.

Final-Value: -13.028


	FINAL GENETIC ALGORITHM DOCKED STATE
	_______________________________________________


Detailed state:  trans 26.574 -18.423 -2.380 quatxyzw -0.046347 -0.916117 -0.369918 -0.147451 center 0.056 -0.347 0.144 ntor 9 29.8381 85.4255 -73.2468 46.8384 -64.7598 -79.8420 159.7165 -33.8493 -54.2445
State:	 26.574 -18.423  -2.380  -0.047 -0.926 -0.374 -163.042     29.84   85.43  -73.25   46.84  -64.76  -79.84  159.72  -33.85  -54.24

DOCKED: MODEL       83
DOCKED: USER    Run = 83
DOCKED: USER    DPF = ligand_dock.biased.dpf
DOCKED: USER  
DOCKED: USER    Estimated Free Energy of Binding    =   -9.19 kcal/mol  [=(1)+(2)+(3)-(4)]
DOCKED: USER    Estimated Inhibition Constant, Ki   =  184.12 nM (nanomolar)  [Temperature = 298.15 K]
DOCKED: USER    
DOCKED: USER    (1) Final Intermolecular Energy     =  -11.87 kcal/mol
DOCKED: USER        vdW + Hbond + desolv Energy     =  -11.87 kcal/mol
DOCKED: USER        Electrostatic Energy            =   +0.00 kcal/mol
DOCKED: USER    (2) Final Total Internal Energy     =   -1.15 kcal/mol
DOCKED: USER    (3) Torsional Free Energy           =   +2.68 kcal/mol
DOCKED: USER    (4) Unbound System's Energy  [=(2)] =   -1.15 kcal/mol
DOCKED: USER    
DOCKED: USER    
DOCKED: USER    NEWDPF move ligand.pdbqt
DOCKED: USER    NEWDPF about 0.056000 -0.347000 0.144000
DOCKED: USER    NEWDPF tran0 26.574210 -18.422925 -2.379975
DOCKED: USER    NEWDPF quaternion0 -0.046347 -0.916117 -0.369918 -0.147451
DOCKED: USER    NEWDPF axisangle0 -0.046860 -0.926242 -0.374006 -163.041523
DOCKED: USER    NEWDPF quat0 -0.046860 -0.926242 -0.374006 -163.041523
DOCKED: USER    NEWDPF dihe0 29.84 85.43 -73.25 46.84 -64.76 -79.84 159.72 -33.85 -54.24 
DOCKED: USER  keepresnum = 1 
DOCKED: USER  
DOCKED: REMARK  Name = 
DOCKED: REMARK  9 active torsions:
DOCKED: REMARK  status: ('A' for Active; 'I' for Inactive)
DOCKED: REMARK    1  A    between atoms: C_2  and  C_10
DOCKED: REMARK    2  A    between atoms: N_3  and  C_4
DOCKED: REMARK    3  A    between atoms: C_10  and  C_11
DOCKED: REMARK    4  A    between atoms: C_11  and  C_12
DOCKED: REMARK    5  A    between atoms: C_12  and  C_13
DOCKED: REMARK    6  A    between atoms: C_13  and  C_14
DOCKED: REMARK    7  A    between atoms: C_14  and  C_15
DOCKED: REMARK    8  A    between atoms: C_15  and  C_16
DOCKED: REMARK    9  A    between atoms: N_17  and  O_18
DOCKED: REMARK                            x       y       z     vdW  Elec       q    Type
DOCKED: REMARK                         _______ _______ _______ _____ _____    ______ ____
DOCKED: USER                              x       y       z     vdW  Elec       q    Type
DOCKED: USER                           _______ _______ _______ _____ _____    ______ ____
DOCKED: ROOT
DOCKED: ATOM      1  C   UNL     1      27.363 -16.117  -1.406 -0.37 -0.00    +0.000 C 
DOCKED: ENDROOT
DOCKED: BRANCH   1   3
DOCKED: ATOM      2  O   UNL     1      29.495 -16.781  -2.241 -0.24 -0.00    +0.000 OA
DOCKED: ATOM      3  C   UNL     1      28.353 -16.321  -2.512 -0.29 -0.00    +0.000 C 
DOCKED: ATOM      4  N   UNL     1      28.000 -15.989  -3.864 -0.29 -0.00    +0.000 N 
DOCKED: ATOM      5  H   UNL     1      27.057 -15.777  -4.057 -0.02 -0.00    +0.000 HD
DOCKED: BRANCH   4   6
DOCKED: ATOM      6  C   UNL     1      28.936 -15.947  -4.953 -0.30 -0.00    +0.000 A 
DOCKED: ATOM      7  C   UNL     1      29.840 -17.002  -5.184 -0.27 -0.00    +0.000 A 
DOCKED: ATOM      8  C   UNL     1      30.755 -16.926  -6.239 -0.27 -0.00    +0.000 A 
DOCKED: ATOM      9  C   UNL     1      30.786 -15.797  -7.062 -0.26 -0.00    +0.000 A 
DOCKED: ATOM     10  C   UNL     1      29.909 -14.736  -6.824 -0.28 -0.00    +0.000 A 
DOCKED: ATOM     11  C   UNL     1      28.994 -14.807  -5.770 -0.31 -0.00    +0.000 A 
DOCKED: ENDBRANCH   4   6
DOCKED: ENDBRANCH   1   3
DOCKED: BRANCH   1  12
DOCKED: ATOM     12  C   UNL     1      26.291 -17.212  -1.441 -0.53 -0.00    +0.000 C 
DOCKED: BRANCH  12  13
DOCKED: ATOM     13  C   UNL     1      26.191 -17.925  -0.085 -0.63 -0.00    +0.000 C 
DOCKED: BRANCH  13  14
DOCKED: ATOM     14  C   UNL     1      24.740 -18.235   0.313 -0.51 -0.00    +0.000 C 
DOCKED: BRANCH  14  15
DOCKED: ATOM     15  C   UNL     1      23.714 -17.572  -0.623 -0.75 -0.00    +0.000 C 
DOCKED: BRANCH  15  16
DOCKED: ATOM     16  C   UNL     1      23.024 -18.590  -1.541 -0.69 -0.00    +0.000 C 
DOCKED: BRANCH  16  17
DOCKED: ATOM     17  C   UNL     1      21.554 -18.690  -1.254 -0.62 -0.00    +0.000 C 
DOCKED: ATOM     18  N   UNL     1      20.773 -19.739  -1.832 -0.75 -0.00    +0.000 N 
DOCKED: ATOM     19  O   UNL     1      21.014 -17.860  -0.476 -2.02 -0.00    +0.000 OA
DOCKED: ATOM     20  H   UNL     1      21.197 -20.379  -2.449 -0.51 -0.00    +0.000 HD
DOCKED: BRANCH  18  21
DOCKED: ATOM     21  O   UNL     1      19.457 -19.861  -1.538 -1.44 -0.00    +0.000 OA
DOCKED: ATOM     22  H   UNL     1      19.087 -18.985  -1.345 -0.52 -0.00    +0.000 HD
DOCKED: ENDBRANCH  18  21
DOCKED: ENDBRANCH  16  17
DOCKED: ENDBRANCH  15  16
DOCKED: ENDBRANCH  14  15
DOCKED: ENDBRANCH  13  14
DOCKED: ENDBRANCH  12  13
DOCKED: ENDBRANCH   1  12
DOCKED: TORSDOF 9
DOCKED: TER
DOCKED: ENDMDL
________________________________________________________________________________


	BEGINNING GENETIC ALGORITHM DOCKING 84 of 100
Run: 84 Seed: 1995470788 1751577625 [ Run 84 of 100 GA/GALS ]
Beginning LAMARCKIAN GENETIC ALGORITHM (LGA), with a maximum of 2500000 energy evaluations.

Final-Value: -12.279


	FINAL GENETIC ALGORITHM DOCKED STATE
	_______________________________________________


Detailed state:  trans 25.743 -17.666 -2.844 quatxyzw 0.140266 0.741521 0.649659 -0.091734 center 0.056 -0.347 0.144 ntor 9 -7.0474 86.1144 -12.2086 97.3132 -145.7673 61.2709 -64.2457 -64.8924 -38.7904
State:	 25.743 -17.666  -2.844   0.141  0.745  0.652 -169.473     -7.05   86.11  -12.21   97.31 -145.77   61.27  -64.25  -64.89  -38.79

DOCKED: MODEL       84
DOCKED: USER    Run = 84
DOCKED: USER    DPF = ligand_dock.biased.dpf
DOCKED: USER  
DOCKED: USER    Estimated Free Energy of Binding    =   -8.40 kcal/mol  [=(1)+(2)+(3)-(4)]
DOCKED: USER    Estimated Inhibition Constant, Ki   =  693.03 nM (nanomolar)  [Temperature = 298.15 K]
DOCKED: USER    
DOCKED: USER    (1) Final Intermolecular Energy     =  -11.09 kcal/mol
DOCKED: USER        vdW + Hbond + desolv Energy     =  -11.09 kcal/mol
DOCKED: USER        Electrostatic Energy            =   +0.00 kcal/mol
DOCKED: USER    (2) Final Total Internal Energy     =   -1.19 kcal/mol
DOCKED: USER    (3) Torsional Free Energy           =   +2.68 kcal/mol
DOCKED: USER    (4) Unbound System's Energy  [=(2)] =   -1.19 kcal/mol
DOCKED: USER    
DOCKED: USER    
DOCKED: USER    NEWDPF move ligand.pdbqt
DOCKED: USER    NEWDPF about 0.056000 -0.347000 0.144000
DOCKED: USER    NEWDPF tran0 25.742507 -17.666101 -2.844133
DOCKED: USER    NEWDPF quaternion0 0.140266 0.741521 0.649659 -0.091734
DOCKED: USER    NEWDPF axisangle0 0.140860 0.744660 0.652410 -169.473220
DOCKED: USER    NEWDPF quat0 0.140860 0.744660 0.652410 -169.473220
DOCKED: USER    NEWDPF dihe0 -7.05 86.11 -12.21 97.31 -145.77 61.27 -64.25 -64.89 -38.79 
DOCKED: USER  keepresnum = 1 
DOCKED: USER  
DOCKED: REMARK  Name = 
DOCKED: REMARK  9 active torsions:
DOCKED: REMARK  status: ('A' for Active; 'I' for Inactive)
DOCKED: REMARK    1  A    between atoms: C_2  and  C_10
DOCKED: REMARK    2  A    between atoms: N_3  and  C_4
DOCKED: REMARK    3  A    between atoms: C_10  and  C_11
DOCKED: REMARK    4  A    between atoms: C_11  and  C_12
DOCKED: REMARK    5  A    between atoms: C_12  and  C_13
DOCKED: REMARK    6  A    between atoms: C_13  and  C_14
DOCKED: REMARK    7  A    between atoms: C_14  and  C_15
DOCKED: REMARK    8  A    between atoms: C_15  and  C_16
DOCKED: REMARK    9  A    between atoms: N_17  and  O_18
DOCKED: REMARK                            x       y       z     vdW  Elec       q    Type
DOCKED: REMARK                         _______ _______ _______ _____ _____    ______ ____
DOCKED: USER                              x       y       z     vdW  Elec       q    Type
DOCKED: USER                           _______ _______ _______ _____ _____    ______ ____
DOCKED: ROOT
DOCKED: ATOM      1  C   UNL     1      26.679 -16.849  -0.533 -0.51 -0.00    +0.000 C 
DOCKED: ENDROOT
DOCKED: BRANCH   1   3
DOCKED: ATOM      2  O   UNL     1      27.943 -16.672  -2.547 -0.35 -0.00    +0.000 OA
DOCKED: ATOM      3  C   UNL     1      27.943 -16.989  -1.327 -0.38 -0.00    +0.000 C 
DOCKED: ATOM      4  N   UNL     1      29.136 -17.485  -0.700 -0.28 -0.00    +0.000 N 
DOCKED: ATOM      5  H   UNL     1      29.137 -17.579   0.281 -0.53 -0.00    +0.000 HD
DOCKED: BRANCH   4   6
DOCKED: ATOM      6  C   UNL     1      30.326 -17.853  -1.414 -0.20 -0.00    +0.000 A 
DOCKED: ATOM      7  C   UNL     1      30.899 -16.999  -2.376 -0.12 -0.00    +0.000 A 
DOCKED: ATOM      8  C   UNL     1      32.047 -17.391  -3.071 -0.07 -0.00    +0.000 A 
DOCKED: ATOM      9  C   UNL     1      32.625 -18.640  -2.826 -0.06 -0.00    +0.000 A 
DOCKED: ATOM     10  C   UNL     1      32.049 -19.504  -1.891 -0.11 -0.00    +0.000 A 
DOCKED: ATOM     11  C   UNL     1      30.901 -19.116  -1.194 -0.16 -0.00    +0.000 A 
DOCKED: ENDBRANCH   4   6
DOCKED: ENDBRANCH   1   3
DOCKED: BRANCH   1  12
DOCKED: ATOM     12  C   UNL     1      25.458 -17.079  -1.429 -0.62 -0.00    +0.000 C 
DOCKED: BRANCH  12  13
DOCKED: ATOM     13  C   UNL     1      24.373 -17.871  -0.685 -0.76 -0.00    +0.000 C 
DOCKED: BRANCH  13  14
DOCKED: ATOM     14  C   UNL     1      23.149 -17.012  -0.336 -0.50 -0.00    +0.000 C 
DOCKED: BRANCH  14  15
DOCKED: ATOM     15  C   UNL     1      21.820 -17.694  -0.710 -0.77 -0.00    +0.000 C 
DOCKED: BRANCH  15  16
DOCKED: ATOM     16  C   UNL     1      21.936 -19.224  -0.717 -0.81 -0.00    +0.000 C 
DOCKED: BRANCH  16  17
DOCKED: ATOM     17  C   UNL     1      20.587 -19.883  -0.741 -0.79 -0.00    +0.000 C 
DOCKED: ATOM     18  N   UNL     1      20.086 -20.551   0.419 -0.70 -0.00    +0.000 N 
DOCKED: ATOM     19  O   UNL     1      19.882 -19.820  -1.784 -1.83 -0.00    +0.000 OA
DOCKED: ATOM     20  H   UNL     1      20.644 -20.608   1.228 -0.50 -0.00    +0.000 HD
DOCKED: BRANCH  18  21
DOCKED: ATOM     21  O   UNL     1      18.850 -21.105   0.415 -0.76 -0.00    +0.000 OA
DOCKED: ATOM     22  H   UNL     1      18.393 -20.868  -0.406 -0.26 -0.00    +0.000 HD
DOCKED: ENDBRANCH  18  21
DOCKED: ENDBRANCH  16  17
DOCKED: ENDBRANCH  15  16
DOCKED: ENDBRANCH  14  15
DOCKED: ENDBRANCH  13  14
DOCKED: ENDBRANCH  12  13
DOCKED: ENDBRANCH   1  12
DOCKED: TORSDOF 9
DOCKED: TER
DOCKED: ENDMDL
________________________________________________________________________________


	BEGINNING GENETIC ALGORITHM DOCKING 85 of 100
Run: 85 Seed: 898185534 1509748169 [ Run 85 of 100 GA/GALS ]
Beginning LAMARCKIAN GENETIC ALGORITHM (LGA), with a maximum of 2500000 energy evaluations.

Final-Value: -13.334


	FINAL GENETIC ALGORITHM DOCKED STATE
	_______________________________________________


Detailed state:  trans 25.528 -14.310 1.105 quatxyzw -0.036800 -0.485094 0.669837 0.560935 center 0.056 -0.347 0.144 ntor 9 1.4406 -75.6277 -44.2256 90.7546 103.4467 50.0148 180.0000 -79.2815 23.1702
State:	 25.528 -14.310   1.105  -0.044 -0.586  0.809 111.759      1.44  -75.63  -44.23   90.75  103.45   50.01  180.00  -79.28   23.17

DOCKED: MODEL       85
DOCKED: USER    Run = 85
DOCKED: USER    DPF = ligand_dock.biased.dpf
DOCKED: USER  
DOCKED: USER    Estimated Free Energy of Binding    =   -9.34 kcal/mol  [=(1)+(2)+(3)-(4)]
DOCKED: USER    Estimated Inhibition Constant, Ki   =  142.06 nM (nanomolar)  [Temperature = 298.15 K]
DOCKED: USER    
DOCKED: USER    (1) Final Intermolecular Energy     =  -12.03 kcal/mol
DOCKED: USER        vdW + Hbond + desolv Energy     =  -12.03 kcal/mol
DOCKED: USER        Electrostatic Energy            =   +0.00 kcal/mol
DOCKED: USER    (2) Final Total Internal Energy     =   -1.31 kcal/mol
DOCKED: USER    (3) Torsional Free Energy           =   +2.68 kcal/mol
DOCKED: USER    (4) Unbound System's Energy  [=(2)] =   -1.31 kcal/mol
DOCKED: USER    
DOCKED: USER    
DOCKED: USER    NEWDPF move ligand.pdbqt
DOCKED: USER    NEWDPF about 0.056000 -0.347000 0.144000
DOCKED: USER    NEWDPF tran0 25.528288 -14.310424 1.104575
DOCKED: USER    NEWDPF quaternion0 -0.036800 -0.485094 0.669837 0.560935
DOCKED: USER    NEWDPF axisangle0 -0.044451 -0.585961 0.809119 111.759087
DOCKED: USER    NEWDPF quat0 -0.044451 -0.585961 0.809119 111.759087
DOCKED: USER    NEWDPF dihe0 1.44 -75.63 -44.23 90.75 103.45 50.01 180.00 -79.28 23.17 
DOCKED: USER  keepresnum = 1 
DOCKED: USER  
DOCKED: REMARK  Name = 
DOCKED: REMARK  9 active torsions:
DOCKED: REMARK  status: ('A' for Active; 'I' for Inactive)
DOCKED: REMARK    1  A    between atoms: C_2  and  C_10
DOCKED: REMARK    2  A    between atoms: N_3  and  C_4
DOCKED: REMARK    3  A    between atoms: C_10  and  C_11
DOCKED: REMARK    4  A    between atoms: C_11  and  C_12
DOCKED: REMARK    5  A    between atoms: C_12  and  C_13
DOCKED: REMARK    6  A    between atoms: C_13  and  C_14
DOCKED: REMARK    7  A    between atoms: C_14  and  C_15
DOCKED: REMARK    8  A    between atoms: C_15  and  C_16
DOCKED: REMARK    9  A    between atoms: N_17  and  O_18
DOCKED: REMARK                            x       y       z     vdW  Elec       q    Type
DOCKED: REMARK                         _______ _______ _______ _____ _____    ______ ____
DOCKED: USER                              x       y       z     vdW  Elec       q    Type
DOCKED: USER                           _______ _______ _______ _____ _____    ______ ____
DOCKED: ROOT
DOCKED: ATOM      1  C   UNL     1      28.024 -14.213   0.298 -0.23 -0.00    +0.000 C 
DOCKED: ENDROOT
DOCKED: BRANCH   1   3
DOCKED: ATOM      2  O   UNL     1      27.797 -12.434   1.871 -0.22 -0.00    +0.000 OA
DOCKED: ATOM      3  C   UNL     1      28.139 -13.632   1.676 -0.25 -0.00    +0.000 C 
DOCKED: ATOM      4  N   UNL     1      28.637 -14.437   2.756 -0.28 -0.00    +0.000 N 
DOCKED: ATOM      5  H   UNL     1      28.751 -15.403   2.599 -1.79 -0.00    +0.000 HD
DOCKED: BRANCH   4   6
DOCKED: ATOM      6  C   UNL     1      28.982 -13.919   4.051 -0.35 -0.00    +0.000 A 
DOCKED: ATOM      7  C   UNL     1      30.316 -13.901   4.503 -0.27 -0.00    +0.000 A 
DOCKED: ATOM      8  C   UNL     1      30.621 -13.409   5.776 -0.23 -0.00    +0.000 A 
DOCKED: ATOM      9  C   UNL     1      29.602 -12.948   6.613 -0.32 -0.00    +0.000 A 
DOCKED: ATOM     10  C   UNL     1      28.273 -12.987   6.183 -0.36 -0.00    +0.000 A 
DOCKED: ATOM     11  C   UNL     1      27.964 -13.477   4.911 -0.47 -0.00    +0.000 A 
DOCKED: ENDBRANCH   4   6
DOCKED: ENDBRANCH   1   3
DOCKED: BRANCH   1  12
DOCKED: ATOM     12  C   UNL     1      26.601 -14.724   0.053 -0.29 -0.00    +0.000 C 
DOCKED: BRANCH  12  13
DOCKED: ATOM     13  C   UNL     1      26.584 -15.790  -1.053 -0.42 -0.00    +0.000 C 
DOCKED: BRANCH  13  14
DOCKED: ATOM     14  C   UNL     1      26.660 -17.220  -0.497 -0.55 -0.00    +0.000 C 
DOCKED: BRANCH  14  15
DOCKED: ATOM     15  C   UNL     1      25.450 -18.079  -0.904 -0.64 -0.00    +0.000 C 
DOCKED: BRANCH  15  16
DOCKED: ATOM     16  C   UNL     1      24.252 -17.875   0.033 -0.63 -0.00    +0.000 C 
DOCKED: BRANCH  16  17
DOCKED: ATOM     17  C   UNL     1      22.963 -18.291  -0.613 -0.83 -0.00    +0.000 C 
DOCKED: ATOM     18  N   UNL     1      21.775 -17.520  -0.422 -0.72 -0.00    +0.000 N 
DOCKED: ATOM     19  O   UNL     1      22.938 -19.312  -1.352 -0.84 -0.00    +0.000 OA
DOCKED: ATOM     20  H   UNL     1      21.795 -16.729   0.165 -0.05 -0.00    +0.000 HD
DOCKED: BRANCH  18  21
DOCKED: ATOM     21  O   UNL     1      20.621 -17.865  -1.042 -2.23 -0.00    +0.000 OA
DOCKED: ATOM     22  H   UNL     1      20.763 -18.672  -1.560 -0.06 -0.00    +0.000 HD
DOCKED: ENDBRANCH  18  21
DOCKED: ENDBRANCH  16  17
DOCKED: ENDBRANCH  15  16
DOCKED: ENDBRANCH  14  15
DOCKED: ENDBRANCH  13  14
DOCKED: ENDBRANCH  12  13
DOCKED: ENDBRANCH   1  12
DOCKED: TORSDOF 9
DOCKED: TER
DOCKED: ENDMDL
________________________________________________________________________________


	BEGINNING GENETIC ALGORITHM DOCKING 86 of 100
Run: 86 Seed: 1532250541 104944401 [ Run 86 of 100 GA/GALS ]
Beginning LAMARCKIAN GENETIC ALGORITHM (LGA), with a maximum of 2500000 energy evaluations.

Final-Value: -13.503


	FINAL GENETIC ALGORITHM DOCKED STATE
	_______________________________________________


Detailed state:  trans 24.066 -14.918 -1.810 quatxyzw -0.615382 0.153885 -0.628364 -0.450315 center 0.056 -0.347 0.144 ntor 9 -135.3099 158.8908 -142.1795 -179.4919 -6.2177 -112.2630 -171.9213 43.6404 43.8759
State:	 24.066 -14.918  -1.810  -0.689  0.172 -0.704 -126.472   -135.31  158.89 -142.18 -179.49   -6.22 -112.26 -171.92   43.64   43.88

DOCKED: MODEL       86
DOCKED: USER    Run = 86
DOCKED: USER    DPF = ligand_dock.biased.dpf
DOCKED: USER  
DOCKED: USER    Estimated Free Energy of Binding    =   -9.98 kcal/mol  [=(1)+(2)+(3)-(4)]
DOCKED: USER    Estimated Inhibition Constant, Ki   =   48.13 nM (nanomolar)  [Temperature = 298.15 K]
DOCKED: USER    
DOCKED: USER    (1) Final Intermolecular Energy     =  -12.67 kcal/mol
DOCKED: USER        vdW + Hbond + desolv Energy     =  -12.67 kcal/mol
DOCKED: USER        Electrostatic Energy            =   +0.00 kcal/mol
DOCKED: USER    (2) Final Total Internal Energy     =   -0.84 kcal/mol
DOCKED: USER    (3) Torsional Free Energy           =   +2.68 kcal/mol
DOCKED: USER    (4) Unbound System's Energy  [=(2)] =   -0.84 kcal/mol
DOCKED: USER    
DOCKED: USER    
DOCKED: USER    NEWDPF move ligand.pdbqt
DOCKED: USER    NEWDPF about 0.056000 -0.347000 0.144000
DOCKED: USER    NEWDPF tran0 24.065516 -14.918023 -1.809639
DOCKED: USER    NEWDPF quaternion0 -0.615382 0.153885 -0.628364 -0.450315
DOCKED: USER    NEWDPF axisangle0 -0.689218 0.172348 -0.703758 -126.472225
DOCKED: USER    NEWDPF quat0 -0.689218 0.172348 -0.703758 -126.472225
DOCKED: USER    NEWDPF dihe0 -135.31 158.89 -142.18 -179.49 -6.22 -112.26 -171.92 43.64 43.88 
DOCKED: USER  keepresnum = 1 
DOCKED: USER  
DOCKED: REMARK  Name = 
DOCKED: REMARK  9 active torsions:
DOCKED: REMARK  status: ('A' for Active; 'I' for Inactive)
DOCKED: REMARK    1  A    between atoms: C_2  and  C_10
DOCKED: REMARK    2  A    between atoms: N_3  and  C_4
DOCKED: REMARK    3  A    between atoms: C_10  and  C_11
DOCKED: REMARK    4  A    between atoms: C_11  and  C_12
DOCKED: REMARK    5  A    between atoms: C_12  and  C_13
DOCKED: REMARK    6  A    between atoms: C_13  and  C_14
DOCKED: REMARK    7  A    between atoms: C_14  and  C_15
DOCKED: REMARK    8  A    between atoms: C_15  and  C_16
DOCKED: REMARK    9  A    between atoms: N_17  and  O_18
DOCKED: REMARK                            x       y       z     vdW  Elec       q    Type
DOCKED: REMARK                         _______ _______ _______ _____ _____    ______ ____
DOCKED: USER                              x       y       z     vdW  Elec       q    Type
DOCKED: USER                           _______ _______ _______ _____ _____    ______ ____
DOCKED: ROOT
DOCKED: ATOM      1  C   UNL     1      25.588 -15.613  -3.831 -0.55 -0.00    +0.000 C 
DOCKED: ENDROOT
DOCKED: BRANCH   1   3
DOCKED: ATOM      2  O   UNL     1      24.362 -13.654  -4.417 -1.03 -0.00    +0.000 OA
DOCKED: ATOM      3  C   UNL     1      25.468 -14.135  -4.050 -0.53 -0.00    +0.000 C 
DOCKED: ATOM      4  N   UNL     1      26.606 -13.283  -3.847 -0.28 -0.00    +0.000 N 
DOCKED: ATOM      5  H   UNL     1      27.404 -13.671  -3.418 +0.00 -0.00    +0.000 HD
DOCKED: BRANCH   4   6
DOCKED: ATOM      6  C   UNL     1      26.653 -11.899  -4.229 -0.21 -0.00    +0.000 A 
DOCKED: ATOM      7  C   UNL     1      26.909 -10.885  -3.287 -0.12 -0.00    +0.000 A 
DOCKED: ATOM      8  C   UNL     1      26.930  -9.544  -3.683 -0.10 -0.00    +0.000 A 
DOCKED: ATOM      9  C   UNL     1      26.681  -9.202  -5.015 -0.09 -0.00    +0.000 A 
DOCKED: ATOM     10  C   UNL     1      26.401 -10.200  -5.952 -0.15 -0.00    +0.000 A 
DOCKED: ATOM     11  C   UNL     1      26.379 -11.541  -5.560 -0.21 -0.00    +0.000 A 
DOCKED: ENDBRANCH   4   6
DOCKED: ENDBRANCH   1   3
DOCKED: BRANCH   1  12
DOCKED: ATOM     12  C   UNL     1      24.934 -16.010  -2.503 -0.40 -0.00    +0.000 C 
DOCKED: BRANCH  12  13
DOCKED: ATOM     13  C   UNL     1      25.815 -17.006  -1.734 -0.57 -0.00    +0.000 C 
DOCKED: BRANCH  13  14
DOCKED: ATOM     14  C   UNL     1      24.994 -18.079  -1.005 -0.69 -0.00    +0.000 C 
DOCKED: BRANCH  14  15
DOCKED: ATOM     15  C   UNL     1      23.734 -17.506  -0.331 -0.69 -0.00    +0.000 C 
DOCKED: BRANCH  15  16
DOCKED: ATOM     16  C   UNL     1      22.753 -18.605   0.096 -0.71 -0.00    +0.000 C 
DOCKED: BRANCH  16  17
DOCKED: ATOM     17  C   UNL     1      21.500 -18.583  -0.730 -0.86 -0.00    +0.000 C 
DOCKED: ATOM     18  N   UNL     1      21.101 -19.736  -1.475 -0.70 -0.00    +0.000 N 
DOCKED: ATOM     19  O   UNL     1      20.780 -17.548  -0.741 -2.11 -0.00    +0.000 OA
DOCKED: ATOM     20  H   UNL     1      21.672 -20.539  -1.473 -0.19 -0.00    +0.000 HD
DOCKED: BRANCH  18  21
DOCKED: ATOM     21  O   UNL     1      19.947 -19.736  -2.182 -1.89 -0.00    +0.000 OA
DOCKED: ATOM     22  H   UNL     1      19.474 -20.568  -2.029 -0.57 -0.00    +0.000 HD
DOCKED: ENDBRANCH  18  21
DOCKED: ENDBRANCH  16  17
DOCKED: ENDBRANCH  15  16
DOCKED: ENDBRANCH  14  15
DOCKED: ENDBRANCH  13  14
DOCKED: ENDBRANCH  12  13
DOCKED: ENDBRANCH   1  12
DOCKED: TORSDOF 9
DOCKED: TER
DOCKED: ENDMDL
________________________________________________________________________________


	BEGINNING GENETIC ALGORITHM DOCKING 87 of 100
Run: 87 Seed: 1668924770 1525477018 [ Run 87 of 100 GA/GALS ]
Beginning LAMARCKIAN GENETIC ALGORITHM (LGA), with a maximum of 2500000 energy evaluations.

Final-Value: -13.510


	FINAL GENETIC ALGORITHM DOCKED STATE
	_______________________________________________


Detailed state:  trans 24.610 -15.491 0.581 quatxyzw -0.077232 0.568561 -0.569021 -0.589058 center 0.056 -0.347 0.144 ntor 9 2.7770 130.5389 -1.5619 94.1518 -81.8403 -17.2103 178.6179 -42.7447 59.4114
State:	 24.610 -15.491   0.581  -0.096  0.704 -0.704 -107.820      2.78  130.54   -1.56   94.15  -81.84  -17.21  178.62  -42.74   59.41

DOCKED: MODEL       87
DOCKED: USER    Run = 87
DOCKED: USER    DPF = ligand_dock.biased.dpf
DOCKED: USER  
DOCKED: USER    Estimated Free Energy of Binding    =   -9.46 kcal/mol  [=(1)+(2)+(3)-(4)]
DOCKED: USER    Estimated Inhibition Constant, Ki   =  115.61 nM (nanomolar)  [Temperature = 298.15 K]
DOCKED: USER    
DOCKED: USER    (1) Final Intermolecular Energy     =  -12.15 kcal/mol
DOCKED: USER        vdW + Hbond + desolv Energy     =  -12.15 kcal/mol
DOCKED: USER        Electrostatic Energy            =   +0.00 kcal/mol
DOCKED: USER    (2) Final Total Internal Energy     =   -1.36 kcal/mol
DOCKED: USER    (3) Torsional Free Energy           =   +2.68 kcal/mol
DOCKED: USER    (4) Unbound System's Energy  [=(2)] =   -1.36 kcal/mol
DOCKED: USER    
DOCKED: USER    
DOCKED: USER    NEWDPF move ligand.pdbqt
DOCKED: USER    NEWDPF about 0.056000 -0.347000 0.144000
DOCKED: USER    NEWDPF tran0 24.609528 -15.491297 0.580554
DOCKED: USER    NEWDPF quaternion0 -0.077232 0.568561 -0.569021 -0.589058
DOCKED: USER    NEWDPF axisangle0 -0.095574 0.703585 -0.704154 -107.819623
DOCKED: USER    NEWDPF quat0 -0.095574 0.703585 -0.704154 -107.819623
DOCKED: USER    NEWDPF dihe0 2.78 130.54 -1.56 94.15 -81.84 -17.21 178.62 -42.74 59.41 
DOCKED: USER  keepresnum = 1 
DOCKED: USER  
DOCKED: REMARK  Name = 
DOCKED: REMARK  9 active torsions:
DOCKED: REMARK  status: ('A' for Active; 'I' for Inactive)
DOCKED: REMARK    1  A    between atoms: C_2  and  C_10
DOCKED: REMARK    2  A    between atoms: N_3  and  C_4
DOCKED: REMARK    3  A    between atoms: C_10  and  C_11
DOCKED: REMARK    4  A    between atoms: C_11  and  C_12
DOCKED: REMARK    5  A    between atoms: C_12  and  C_13
DOCKED: REMARK    6  A    between atoms: C_13  and  C_14
DOCKED: REMARK    7  A    between atoms: C_14  and  C_15
DOCKED: REMARK    8  A    between atoms: C_15  and  C_16
DOCKED: REMARK    9  A    between atoms: N_17  and  O_18
DOCKED: REMARK                            x       y       z     vdW  Elec       q    Type
DOCKED: REMARK                         _______ _______ _______ _____ _____    ______ ____
DOCKED: USER                              x       y       z     vdW  Elec       q    Type
DOCKED: USER                           _______ _______ _______ _____ _____    ______ ____
DOCKED: ROOT
DOCKED: ATOM      1  C   UNL     1      26.758 -14.678  -0.688 -0.32 -0.00    +0.000 C 
DOCKED: ENDROOT
DOCKED: BRANCH   1   3
DOCKED: ATOM      2  O   UNL     1      26.456 -13.095   1.069 -0.38 -0.00    +0.000 OA
DOCKED: ATOM      3  C   UNL     1      27.020 -14.159   0.693 -0.30 -0.00    +0.000 C 
DOCKED: ATOM      4  N   UNL     1      27.909 -14.866   1.572 -0.27 -0.00    +0.000 N 
DOCKED: ATOM      5  H   UNL     1      28.210 -15.764   1.300 -0.73 -0.00    +0.000 HD
DOCKED: BRANCH   4   6
DOCKED: ATOM      6  C   UNL     1      28.386 -14.346   2.823 -0.25 -0.00    +0.000 A 
DOCKED: ATOM      7  C   UNL     1      27.728 -14.629   4.035 -0.46 -0.00    +0.000 A 
DOCKED: ATOM      8  C   UNL     1      28.203 -14.093   5.236 -0.47 -0.00    +0.000 A 
DOCKED: ATOM      9  C   UNL     1      29.325 -13.260   5.238 -0.31 -0.00    +0.000 A 
DOCKED: ATOM     10  C   UNL     1      29.969 -12.954   4.036 -0.16 -0.00    +0.000 A 
DOCKED: ATOM     11  C   UNL     1      29.498 -13.487   2.834 -0.17 -0.00    +0.000 A 
DOCKED: ENDBRANCH   4   6
DOCKED: ENDBRANCH   1   3
DOCKED: BRANCH   1  12
DOCKED: ATOM     12  C   UNL     1      25.495 -15.545  -0.701 -0.37 -0.00    +0.000 C 
DOCKED: BRANCH  12  13
DOCKED: ATOM     13  C   UNL     1      25.811 -16.969  -1.181 -0.59 -0.00    +0.000 C 
DOCKED: BRANCH  13  14
DOCKED: ATOM     14  C   UNL     1      25.228 -18.047  -0.255 -0.69 -0.00    +0.000 C 
DOCKED: BRANCH  14  15
DOCKED: ATOM     15  C   UNL     1      23.717 -17.872  -0.019 -0.66 -0.00    +0.000 C 
DOCKED: BRANCH  15  16
DOCKED: ATOM     16  C   UNL     1      22.877 -18.636  -1.050 -0.82 -0.00    +0.000 C 
DOCKED: BRANCH  16  17
DOCKED: ATOM     17  C   UNL     1      21.458 -18.812  -0.590 -0.86 -0.00    +0.000 C 
DOCKED: ATOM     18  N   UNL     1      21.045 -20.031   0.032 -0.63 -0.00    +0.000 N 
DOCKED: ATOM     19  O   UNL     1      20.637 -17.867  -0.727 -2.34 -0.00    +0.000 OA
DOCKED: ATOM     20  H   UNL     1      21.686 -20.773   0.127 -0.55 -0.00    +0.000 HD
DOCKED: BRANCH  18  21
DOCKED: ATOM     21  O   UNL     1      19.779 -20.177   0.491 -0.79 -0.00    +0.000 OA
DOCKED: ATOM     22  H   UNL     1      19.267 -19.380   0.282 -0.04 -0.00    +0.000 HD
DOCKED: ENDBRANCH  18  21
DOCKED: ENDBRANCH  16  17
DOCKED: ENDBRANCH  15  16
DOCKED: ENDBRANCH  14  15
DOCKED: ENDBRANCH  13  14
DOCKED: ENDBRANCH  12  13
DOCKED: ENDBRANCH   1  12
DOCKED: TORSDOF 9
DOCKED: TER
DOCKED: ENDMDL
________________________________________________________________________________


	BEGINNING GENETIC ALGORITHM DOCKING 88 of 100
Run: 88 Seed: 431895874 2072705069 [ Run 88 of 100 GA/GALS ]
Beginning LAMARCKIAN GENETIC ALGORITHM (LGA), with a maximum of 2500000 energy evaluations.

Final-Value: -14.166


	FINAL GENETIC ALGORITHM DOCKED STATE
	_______________________________________________


Detailed state:  trans 23.197 -17.421 1.170 quatxyzw -0.804408 -0.290960 0.203568 -0.476266 center 0.056 -0.347 0.144 ntor 9 13.9436 113.1166 -160.0039 40.4676 131.8379 171.2080 -2.1093 139.1068 37.6013
State:	 23.197 -17.421   1.170  -0.915 -0.331  0.232 -123.116     13.94  113.12 -160.00   40.47  131.84  171.21   -2.11  139.11   37.60

DOCKED: MODEL       88
DOCKED: USER    Run = 88
DOCKED: USER    DPF = ligand_dock.biased.dpf
DOCKED: USER  
DOCKED: USER    Estimated Free Energy of Binding    =  -10.12 kcal/mol  [=(1)+(2)+(3)-(4)]
DOCKED: USER    Estimated Inhibition Constant, Ki   =   38.39 nM (nanomolar)  [Temperature = 298.15 K]
DOCKED: USER    
DOCKED: USER    (1) Final Intermolecular Energy     =  -12.80 kcal/mol
DOCKED: USER        vdW + Hbond + desolv Energy     =  -12.80 kcal/mol
DOCKED: USER        Electrostatic Energy            =   +0.00 kcal/mol
DOCKED: USER    (2) Final Total Internal Energy     =   -1.36 kcal/mol
DOCKED: USER    (3) Torsional Free Energy           =   +2.68 kcal/mol
DOCKED: USER    (4) Unbound System's Energy  [=(2)] =   -1.36 kcal/mol
DOCKED: USER    
DOCKED: USER    
DOCKED: USER    NEWDPF move ligand.pdbqt
DOCKED: USER    NEWDPF about 0.056000 -0.347000 0.144000
DOCKED: USER    NEWDPF tran0 23.197178 -17.420584 1.169836
DOCKED: USER    NEWDPF quaternion0 -0.804408 -0.290960 0.203568 -0.476266
DOCKED: USER    NEWDPF axisangle0 -0.914827 -0.330900 0.231511 -123.116320
DOCKED: USER    NEWDPF quat0 -0.914827 -0.330900 0.231511 -123.116320
DOCKED: USER    NEWDPF dihe0 13.94 113.12 -160.00 40.47 131.84 171.21 -2.11 139.11 37.60 
DOCKED: USER  keepresnum = 1 
DOCKED: USER  
DOCKED: REMARK  Name = 
DOCKED: REMARK  9 active torsions:
DOCKED: REMARK  status: ('A' for Active; 'I' for Inactive)
DOCKED: REMARK    1  A    between atoms: C_2  and  C_10
DOCKED: REMARK    2  A    between atoms: N_3  and  C_4
DOCKED: REMARK    3  A    between atoms: C_10  and  C_11
DOCKED: REMARK    4  A    between atoms: C_11  and  C_12
DOCKED: REMARK    5  A    between atoms: C_12  and  C_13
DOCKED: REMARK    6  A    between atoms: C_13  and  C_14
DOCKED: REMARK    7  A    between atoms: C_14  and  C_15
DOCKED: REMARK    8  A    between atoms: C_15  and  C_16
DOCKED: REMARK    9  A    between atoms: N_17  and  O_18
DOCKED: REMARK                            x       y       z     vdW  Elec       q    Type
DOCKED: REMARK                         _______ _______ _______ _____ _____    ______ ____
DOCKED: USER                              x       y       z     vdW  Elec       q    Type
DOCKED: USER                           _______ _______ _______ _____ _____    ______ ____
DOCKED: ROOT
DOCKED: ATOM      1  C   UNL     1      23.042 -18.206  -1.330 -0.74 -0.00    +0.000 C 
DOCKED: ENDROOT
DOCKED: BRANCH   1   3
DOCKED: ATOM      2  O   UNL     1      20.713 -17.761  -1.082 -2.16 -0.00    +0.000 OA
DOCKED: ATOM      3  C   UNL     1      21.669 -18.543  -0.832 -0.84 -0.00    +0.000 C 
DOCKED: ATOM      4  N   UNL     1      21.454 -19.745  -0.074 -0.61 -0.00    +0.000 N 
DOCKED: ATOM      5  H   UNL     1      22.187 -20.400  -0.028 -0.52 -0.00    +0.000 HD
DOCKED: BRANCH   4   6
DOCKED: ATOM      6  C   UNL     1      20.234 -20.048   0.621 -0.65 -0.00    +0.000 A 
DOCKED: ATOM      7  C   UNL     1      19.086 -20.484  -0.067 -0.44 -0.00    +0.000 A 
DOCKED: ATOM      8  C   UNL     1      17.905 -20.754   0.633 -0.52 -0.00    +0.000 A 
DOCKED: ATOM      9  C   UNL     1      17.855 -20.578   2.018 -0.58 -0.00    +0.000 A 
DOCKED: ATOM     10  C   UNL     1      18.982 -20.122   2.706 -0.30 -0.00    +0.000 A 
DOCKED: ATOM     11  C   UNL     1      20.164 -19.851   2.010 -0.45 -0.00    +0.000 A 
DOCKED: ENDBRANCH   4   6
DOCKED: ENDBRANCH   1   3
DOCKED: BRANCH   1  12
DOCKED: ATOM     12  C   UNL     1      23.827 -17.446  -0.255 -0.59 -0.00    +0.000 C 
DOCKED: BRANCH  12  13
DOCKED: ATOM     13  C   UNL     1      24.707 -16.357  -0.886 -0.50 -0.00    +0.000 C 
DOCKED: BRANCH  13  14
DOCKED: ATOM     14  C   UNL     1      25.504 -16.869  -2.095 -0.57 -0.00    +0.000 C 
DOCKED: BRANCH  14  15
DOCKED: ATOM     15  C   UNL     1      27.026 -16.787  -1.878 -0.40 -0.00    +0.000 C 
DOCKED: BRANCH  15  16
DOCKED: ATOM     16  C   UNL     1      27.486 -15.367  -1.525 -0.29 -0.00    +0.000 C 
DOCKED: BRANCH  16  17
DOCKED: ATOM     17  C   UNL     1      27.913 -15.262  -0.089 -0.28 -0.00    +0.000 C 
DOCKED: ATOM     18  N   UNL     1      29.300 -15.205   0.252 -0.17 -0.00    +0.000 N 
DOCKED: ATOM     19  O   UNL     1      27.039 -15.196   0.817 -0.32 -0.00    +0.000 OA
DOCKED: ATOM     20  H   UNL     1      29.980 -15.269  -0.457 -0.00 -0.00    +0.000 HD
DOCKED: BRANCH  18  21
DOCKED: ATOM     21  O   UNL     1      29.687 -15.062   1.542 -0.08 -0.00    +0.000 OA
DOCKED: ATOM     22  H   UNL     1      28.933 -15.235   2.126 -1.77 -0.00    +0.000 HD
DOCKED: ENDBRANCH  18  21
DOCKED: ENDBRANCH  16  17
DOCKED: ENDBRANCH  15  16
DOCKED: ENDBRANCH  14  15
DOCKED: ENDBRANCH  13  14
DOCKED: ENDBRANCH  12  13
DOCKED: ENDBRANCH   1  12
DOCKED: TORSDOF 9
DOCKED: TER
DOCKED: ENDMDL
________________________________________________________________________________


	BEGINNING GENETIC ALGORITHM DOCKING 89 of 100
Run: 89 Seed: 444947914 484017652 [ Run 89 of 100 GA/GALS ]
Beginning LAMARCKIAN GENETIC ALGORITHM (LGA), with a maximum of 2500000 energy evaluations.

Final-Value: -13.952


	FINAL GENETIC ALGORITHM DOCKED STATE
	_______________________________________________


Detailed state:  trans 25.876 -17.640 -3.139 quatxyzw -0.095824 0.962677 0.237639 0.087172 center 0.056 -0.347 0.144 ntor 9 -9.5968 -84.1774 139.5070 63.3553 158.1338 179.6333 173.4693 49.2113 -52.4566
State:	 25.876 -17.640  -3.139  -0.096  0.966  0.239 169.998     -9.60  -84.18  139.51   63.36  158.13  179.63  173.47   49.21  -52.46

DOCKED: MODEL       89
DOCKED: USER    Run = 89
DOCKED: USER    DPF = ligand_dock.biased.dpf
DOCKED: USER  
DOCKED: USER    Estimated Free Energy of Binding    =   -9.91 kcal/mol  [=(1)+(2)+(3)-(4)]
DOCKED: USER    Estimated Inhibition Constant, Ki   =   54.34 nM (nanomolar)  [Temperature = 298.15 K]
DOCKED: USER    
DOCKED: USER    (1) Final Intermolecular Energy     =  -12.60 kcal/mol
DOCKED: USER        vdW + Hbond + desolv Energy     =  -12.60 kcal/mol
DOCKED: USER        Electrostatic Energy            =   +0.00 kcal/mol
DOCKED: USER    (2) Final Total Internal Energy     =   -1.36 kcal/mol
DOCKED: USER    (3) Torsional Free Energy           =   +2.68 kcal/mol
DOCKED: USER    (4) Unbound System's Energy  [=(2)] =   -1.36 kcal/mol
DOCKED: USER    
DOCKED: USER    
DOCKED: USER    NEWDPF move ligand.pdbqt
DOCKED: USER    NEWDPF about 0.056000 -0.347000 0.144000
DOCKED: USER    NEWDPF tran0 25.875772 -17.639556 -3.139347
DOCKED: USER    NEWDPF quaternion0 -0.095824 0.962677 0.237639 0.087172
DOCKED: USER    NEWDPF axisangle0 -0.096190 0.966355 0.238547 169.998104
DOCKED: USER    NEWDPF quat0 -0.096190 0.966355 0.238547 169.998104
DOCKED: USER    NEWDPF dihe0 -9.60 -84.18 139.51 63.36 158.13 179.63 173.47 49.21 -52.46 
DOCKED: USER  keepresnum = 1 
DOCKED: USER  
DOCKED: REMARK  Name = 
DOCKED: REMARK  9 active torsions:
DOCKED: REMARK  status: ('A' for Active; 'I' for Inactive)
DOCKED: REMARK    1  A    between atoms: C_2  and  C_10
DOCKED: REMARK    2  A    between atoms: N_3  and  C_4
DOCKED: REMARK    3  A    between atoms: C_10  and  C_11
DOCKED: REMARK    4  A    between atoms: C_11  and  C_12
DOCKED: REMARK    5  A    between atoms: C_12  and  C_13
DOCKED: REMARK    6  A    between atoms: C_13  and  C_14
DOCKED: REMARK    7  A    between atoms: C_14  and  C_15
DOCKED: REMARK    8  A    between atoms: C_15  and  C_16
DOCKED: REMARK    9  A    between atoms: N_17  and  O_18
DOCKED: REMARK                            x       y       z     vdW  Elec       q    Type
DOCKED: REMARK                         _______ _______ _______ _____ _____    ______ ____
DOCKED: USER                              x       y       z     vdW  Elec       q    Type
DOCKED: USER                           _______ _______ _______ _____ _____    ______ ____
DOCKED: ROOT
DOCKED: ATOM      1  C   UNL     1      25.857 -15.055  -2.680 -0.48 -0.00    +0.000 C 
DOCKED: ENDROOT
DOCKED: BRANCH   1   3
DOCKED: ATOM      2  O   UNL     1      28.185 -15.515  -2.923 -0.25 -0.00    +0.000 OA
DOCKED: ATOM      3  C   UNL     1      27.107 -15.199  -3.496 -0.39 -0.00    +0.000 C 
DOCKED: ATOM      4  N   UNL     1      27.071 -14.973  -4.914 -0.46 -0.00    +0.000 N 
DOCKED: ATOM      5  H   UNL     1      26.190 -14.876  -5.344 -0.05 -0.00    +0.000 HD
DOCKED: BRANCH   4   6
DOCKED: ATOM      6  C   UNL     1      28.240 -14.877  -5.743 -0.37 -0.00    +0.000 A 
DOCKED: ATOM      7  C   UNL     1      28.509 -13.722  -6.502 -0.28 -0.00    +0.000 A 
DOCKED: ATOM      8  C   UNL     1      29.644 -13.664  -7.316 -0.24 -0.00    +0.000 A 
DOCKED: ATOM      9  C   UNL     1      30.511 -14.757  -7.393 -0.23 -0.00    +0.000 A 
DOCKED: ATOM     10  C   UNL     1      30.238 -15.917  -6.662 -0.30 -0.00    +0.000 A 
DOCKED: ATOM     11  C   UNL     1      29.104 -15.980  -5.847 -0.28 -0.00    +0.000 A 
DOCKED: ENDBRANCH   4   6
DOCKED: ENDBRANCH   1   3
DOCKED: BRANCH   1  12
DOCKED: ATOM     12  C   UNL     1      25.105 -16.389  -2.620 -0.48 -0.00    +0.000 C 
DOCKED: BRANCH  12  13
DOCKED: ATOM     13  C   UNL     1      24.803 -16.783  -1.167 -0.64 -0.00    +0.000 C 
DOCKED: BRANCH  13  14
DOCKED: ATOM     14  C   UNL     1      25.065 -18.271  -0.891 -0.68 -0.00    +0.000 C 
DOCKED: BRANCH  14  15
DOCKED: ATOM     15  C   UNL     1      23.768 -19.071  -0.676 -0.67 -0.00    +0.000 C 
DOCKED: BRANCH  15  16
DOCKED: ATOM     16  C   UNL     1      22.649 -18.210  -0.076 -0.80 -0.00    +0.000 C 
DOCKED: BRANCH  16  17
DOCKED: ATOM     17  C   UNL     1      21.357 -18.378  -0.823 -0.80 -0.00    +0.000 C 
DOCKED: ATOM     18  N   UNL     1      20.913 -19.678  -1.218 -0.78 -0.00    +0.000 N 
DOCKED: ATOM     19  O   UNL     1      20.648 -17.368  -1.075 -2.01 -0.00    +0.000 OA
DOCKED: ATOM     20  H   UNL     1      21.475 -20.464  -1.030 -0.17 -0.00    +0.000 HD
DOCKED: BRANCH  18  21
DOCKED: ATOM     21  O   UNL     1      19.725 -19.838  -1.850 -1.74 -0.00    +0.000 OA
DOCKED: ATOM     22  H   UNL     1      19.231 -19.004  -1.825 -0.51 -0.00    +0.000 HD
DOCKED: ENDBRANCH  18  21
DOCKED: ENDBRANCH  16  17
DOCKED: ENDBRANCH  15  16
DOCKED: ENDBRANCH  14  15
DOCKED: ENDBRANCH  13  14
DOCKED: ENDBRANCH  12  13
DOCKED: ENDBRANCH   1  12
DOCKED: TORSDOF 9
DOCKED: TER
DOCKED: ENDMDL
________________________________________________________________________________


	BEGINNING GENETIC ALGORITHM DOCKING 90 of 100
Run: 90 Seed: 1613547663 1672009935 [ Run 90 of 100 GA/GALS ]
Beginning LAMARCKIAN GENETIC ALGORITHM (LGA), with a maximum of 2500000 energy evaluations.

Final-Value: -13.255


	FINAL GENETIC ALGORITHM DOCKED STATE
	_______________________________________________


Detailed state:  trans 25.019 -16.457 -1.301 quatxyzw -0.563026 -0.248916 -0.614824 -0.492985 center 0.056 -0.347 0.144 ntor 9 19.8190 110.9084 -72.0085 -180.0000 15.8830 18.4895 162.3618 -65.8412 -168.0565
State:	 25.019 -16.457  -1.301  -0.647 -0.286 -0.707 -120.926     19.82  110.91  -72.01 -180.00   15.88   18.49  162.36  -65.84 -168.06

DOCKED: MODEL       90
DOCKED: USER    Run = 90
DOCKED: USER    DPF = ligand_dock.biased.dpf
DOCKED: USER  
DOCKED: USER    Estimated Free Energy of Binding    =   -9.18 kcal/mol  [=(1)+(2)+(3)-(4)]
DOCKED: USER    Estimated Inhibition Constant, Ki   =  188.01 nM (nanomolar)  [Temperature = 298.15 K]
DOCKED: USER    
DOCKED: USER    (1) Final Intermolecular Energy     =  -11.86 kcal/mol
DOCKED: USER        vdW + Hbond + desolv Energy     =  -11.86 kcal/mol
DOCKED: USER        Electrostatic Energy            =   +0.00 kcal/mol
DOCKED: USER    (2) Final Total Internal Energy     =   -1.39 kcal/mol
DOCKED: USER    (3) Torsional Free Energy           =   +2.68 kcal/mol
DOCKED: USER    (4) Unbound System's Energy  [=(2)] =   -1.39 kcal/mol
DOCKED: USER    
DOCKED: USER    
DOCKED: USER    NEWDPF move ligand.pdbqt
DOCKED: USER    NEWDPF about 0.056000 -0.347000 0.144000
DOCKED: USER    NEWDPF tran0 25.018848 -16.456979 -1.300891
DOCKED: USER    NEWDPF quaternion0 -0.563026 -0.248916 -0.614824 -0.492985
DOCKED: USER    NEWDPF axisangle0 -0.647128 -0.286098 -0.706664 -120.926100
DOCKED: USER    NEWDPF quat0 -0.647128 -0.286098 -0.706664 -120.926100
DOCKED: USER    NEWDPF dihe0 19.82 110.91 -72.01 -180.00 15.88 18.49 162.36 -65.84 -168.06 
DOCKED: USER  keepresnum = 1 
DOCKED: USER  
DOCKED: REMARK  Name = 
DOCKED: REMARK  9 active torsions:
DOCKED: REMARK  status: ('A' for Active; 'I' for Inactive)
DOCKED: REMARK    1  A    between atoms: C_2  and  C_10
DOCKED: REMARK    2  A    between atoms: N_3  and  C_4
DOCKED: REMARK    3  A    between atoms: C_10  and  C_11
DOCKED: REMARK    4  A    between atoms: C_11  and  C_12
DOCKED: REMARK    5  A    between atoms: C_12  and  C_13
DOCKED: REMARK    6  A    between atoms: C_13  and  C_14
DOCKED: REMARK    7  A    between atoms: C_14  and  C_15
DOCKED: REMARK    8  A    between atoms: C_15  and  C_16
DOCKED: REMARK    9  A    between atoms: N_17  and  O_18
DOCKED: REMARK                            x       y       z     vdW  Elec       q    Type
DOCKED: REMARK                         _______ _______ _______ _____ _____    ______ ____
DOCKED: USER                              x       y       z     vdW  Elec       q    Type
DOCKED: USER                           _______ _______ _______ _____ _____    ______ ____
DOCKED: ROOT
DOCKED: ATOM      1  C   UNL     1      27.475 -16.612  -2.213 -0.33 -0.00    +0.000 C 
DOCKED: ENDROOT
DOCKED: BRANCH   1   3
DOCKED: ATOM      2  O   UNL     1      26.431 -15.977  -4.261 -0.59 -0.00    +0.000 OA
DOCKED: ATOM      3  C   UNL     1      26.880 -15.600  -3.145 -0.41 -0.00    +0.000 C 
DOCKED: ATOM      4  N   UNL     1      26.830 -14.215  -2.765 -0.26 -0.00    +0.000 N 
DOCKED: ATOM      5  H   UNL     1      27.050 -13.983  -1.833 +0.00 -0.00    +0.000 HD
DOCKED: BRANCH   4   6
DOCKED: ATOM      6  C   UNL     1      26.479 -13.148  -3.661 -0.27 -0.00    +0.000 A 
DOCKED: ATOM      7  C   UNL     1      25.148 -12.942  -4.071 -0.14 -0.00    +0.000 A 
DOCKED: ATOM      8  C   UNL     1      24.838 -11.908  -4.960 -0.18 -0.00    +0.000 A 
DOCKED: ATOM      9  C   UNL     1      25.849 -11.082  -5.457 -0.27 -0.00    +0.000 A 
DOCKED: ATOM     10  C   UNL     1      27.176 -11.295  -5.074 -0.15 -0.00    +0.000 A 
DOCKED: ATOM     11  C   UNL     1      27.491 -12.328  -4.187 -0.16 -0.00    +0.000 A 
DOCKED: ENDBRANCH   4   6
DOCKED: ENDBRANCH   1   3
DOCKED: BRANCH   1  12
DOCKED: ATOM     12  C   UNL     1      26.479 -16.965  -1.103 -0.53 -0.00    +0.000 C 
DOCKED: BRANCH  12  13
DOCKED: ATOM     13  C   UNL     1      25.082 -16.412  -1.424 -0.59 -0.00    +0.000 C 
DOCKED: BRANCH  13  14
DOCKED: ATOM     14  C   UNL     1      24.085 -17.514  -1.810 -0.61 -0.00    +0.000 C 
DOCKED: BRANCH  14  15
DOCKED: ATOM     15  C   UNL     1      23.341 -18.093  -0.593 -0.81 -0.00    +0.000 C 
DOCKED: BRANCH  15  16
DOCKED: ATOM     16  C   UNL     1      22.500 -19.323  -0.959 -0.74 -0.00    +0.000 C 
DOCKED: BRANCH  16  17
DOCKED: ATOM     17  C   UNL     1      21.029 -19.041  -0.860 -0.88 -0.00    +0.000 C 
DOCKED: ATOM     18  N   UNL     1      20.081 -20.110  -0.906 -0.75 -0.00    +0.000 N 
DOCKED: ATOM     19  O   UNL     1      20.632 -17.855  -0.707 -2.35 -0.00    +0.000 OA
DOCKED: ATOM     20  H   UNL     1      20.395 -21.034  -1.037 -0.38 -0.00    +0.000 HD
DOCKED: BRANCH  18  21
DOCKED: ATOM     21  O   UNL     1      18.757 -19.864  -0.769 -0.89 -0.00    +0.000 OA
DOCKED: ATOM     22  H   UNL     1      18.581 -18.929  -0.962 -0.57 -0.00    +0.000 HD
DOCKED: ENDBRANCH  18  21
DOCKED: ENDBRANCH  16  17
DOCKED: ENDBRANCH  15  16
DOCKED: ENDBRANCH  14  15
DOCKED: ENDBRANCH  13  14
DOCKED: ENDBRANCH  12  13
DOCKED: ENDBRANCH   1  12
DOCKED: TORSDOF 9
DOCKED: TER
DOCKED: ENDMDL
________________________________________________________________________________


	BEGINNING GENETIC ALGORITHM DOCKING 91 of 100
Run: 91 Seed: 1822373424 1371050879 [ Run 91 of 100 GA/GALS ]
Beginning LAMARCKIAN GENETIC ALGORITHM (LGA), with a maximum of 2500000 energy evaluations.

Final-Value: -14.158


	FINAL GENETIC ALGORITHM DOCKED STATE
	_______________________________________________


Detailed state:  trans 24.757 -14.604 -1.504 quatxyzw 0.732041 -0.069102 0.541666 0.407356 center 0.056 -0.347 0.144 ntor 9 27.6501 70.7076 -51.5691 154.9326 -173.8891 76.3928 -174.0985 0.8282 -39.1533
State:	 24.757 -14.604  -1.504   0.802 -0.076  0.593 131.922     27.65   70.71  -51.57  154.93 -173.89   76.39 -174.10    0.83  -39.15

DOCKED: MODEL       91
DOCKED: USER    Run = 91
DOCKED: USER    DPF = ligand_dock.biased.dpf
DOCKED: USER  
DOCKED: USER    Estimated Free Energy of Binding    =  -10.36 kcal/mol  [=(1)+(2)+(3)-(4)]
DOCKED: USER    Estimated Inhibition Constant, Ki   =   25.35 nM (nanomolar)  [Temperature = 298.15 K]
DOCKED: USER    
DOCKED: USER    (1) Final Intermolecular Energy     =  -13.05 kcal/mol
DOCKED: USER        vdW + Hbond + desolv Energy     =  -13.05 kcal/mol
DOCKED: USER        Electrostatic Energy            =   +0.00 kcal/mol
DOCKED: USER    (2) Final Total Internal Energy     =   -1.11 kcal/mol
DOCKED: USER    (3) Torsional Free Energy           =   +2.68 kcal/mol
DOCKED: USER    (4) Unbound System's Energy  [=(2)] =   -1.11 kcal/mol
DOCKED: USER    
DOCKED: USER    
DOCKED: USER    NEWDPF move ligand.pdbqt
DOCKED: USER    NEWDPF about 0.056000 -0.347000 0.144000
DOCKED: USER    NEWDPF tran0 24.757468 -14.604200 -1.504460
DOCKED: USER    NEWDPF quaternion0 0.732041 -0.069102 0.541666 0.407356
DOCKED: USER    NEWDPF axisangle0 0.801561 -0.075665 0.593106 131.922313
DOCKED: USER    NEWDPF quat0 0.801561 -0.075665 0.593106 131.922313
DOCKED: USER    NEWDPF dihe0 27.65 70.71 -51.57 154.93 -173.89 76.39 -174.10 0.83 -39.15 
DOCKED: USER  keepresnum = 1 
DOCKED: USER  
DOCKED: REMARK  Name = 
DOCKED: REMARK  9 active torsions:
DOCKED: REMARK  status: ('A' for Active; 'I' for Inactive)
DOCKED: REMARK    1  A    between atoms: C_2  and  C_10
DOCKED: REMARK    2  A    between atoms: N_3  and  C_4
DOCKED: REMARK    3  A    between atoms: C_10  and  C_11
DOCKED: REMARK    4  A    between atoms: C_11  and  C_12
DOCKED: REMARK    5  A    between atoms: C_12  and  C_13
DOCKED: REMARK    6  A    between atoms: C_13  and  C_14
DOCKED: REMARK    7  A    between atoms: C_14  and  C_15
DOCKED: REMARK    8  A    between atoms: C_15  and  C_16
DOCKED: REMARK    9  A    between atoms: N_17  and  O_18
DOCKED: REMARK                            x       y       z     vdW  Elec       q    Type
DOCKED: REMARK                         _______ _______ _______ _____ _____    ______ ____
DOCKED: USER                              x       y       z     vdW  Elec       q    Type
DOCKED: USER                           _______ _______ _______ _____ _____    ______ ____
DOCKED: ROOT
DOCKED: ATOM      1  C   UNL     1      26.021 -15.563  -3.595 -0.56 -0.00    +0.000 C 
DOCKED: ENDROOT
DOCKED: BRANCH   1   3
DOCKED: ATOM      2  O   UNL     1      24.379 -14.016  -4.368 -1.03 -0.00    +0.000 OA
DOCKED: ATOM      3  C   UNL     1      25.595 -14.219  -4.102 -0.53 -0.00    +0.000 C 
DOCKED: ATOM      4  N   UNL     1      26.568 -13.178  -4.285 -0.30 -0.00    +0.000 N 
DOCKED: ATOM      5  H   UNL     1      27.474 -13.324  -3.928 +0.00 -0.00    +0.000 HD
DOCKED: BRANCH   4   6
DOCKED: ATOM      6  C   UNL     1      26.301 -11.937  -4.959 -0.25 -0.00    +0.000 A 
DOCKED: ATOM      7  C   UNL     1      25.038 -11.319  -4.884 -0.36 -0.00    +0.000 A 
DOCKED: ATOM      8  C   UNL     1      24.800 -10.121  -5.566 -0.35 -0.00    +0.000 A 
DOCKED: ATOM      9  C   UNL     1      25.809  -9.539  -6.337 -0.16 -0.00    +0.000 A 
DOCKED: ATOM     10  C   UNL     1      27.057 -10.159  -6.436 -0.11 -0.00    +0.000 A 
DOCKED: ATOM     11  C   UNL     1      27.300 -11.356  -5.757 -0.15 -0.00    +0.000 A 
DOCKED: ENDBRANCH   4   6
DOCKED: ENDBRANCH   1   3
DOCKED: BRANCH   1  12
DOCKED: ATOM     12  C   UNL     1      25.684 -15.703  -2.107 -0.51 -0.00    +0.000 C 
DOCKED: BRANCH  12  13
DOCKED: ATOM     13  C   UNL     1      25.172 -17.116  -1.790 -0.64 -0.00    +0.000 C 
DOCKED: BRANCH  13  14
DOCKED: ATOM     14  C   UNL     1      24.944 -17.338  -0.288 -0.53 -0.00    +0.000 C 
DOCKED: BRANCH  14  15
DOCKED: ATOM     15  C   UNL     1      23.775 -18.298  -0.002 -0.71 -0.00    +0.000 C 
DOCKED: BRANCH  15  16
DOCKED: ATOM     16  C   UNL     1      23.090 -18.776  -1.288 -0.79 -0.00    +0.000 C 
DOCKED: BRANCH  16  17
DOCKED: ATOM     17  C   UNL     1      21.594 -18.758  -1.161 -0.75 -0.00    +0.000 C 
DOCKED: ATOM     18  N   UNL     1      20.796 -19.726  -1.846 -0.74 -0.00    +0.000 N 
DOCKED: ATOM     19  O   UNL     1      21.042 -17.900  -0.421 -1.96 -0.00    +0.000 OA
DOCKED: ATOM     20  H   UNL     1      21.229 -20.388  -2.433 -0.52 -0.00    +0.000 HD
DOCKED: BRANCH  18  21
DOCKED: ATOM     21  O   UNL     1      19.450 -19.742  -1.696 -1.53 -0.00    +0.000 OA
DOCKED: ATOM     22  H   UNL     1      19.139 -18.848  -1.485 -0.56 -0.00    +0.000 HD
DOCKED: ENDBRANCH  18  21
DOCKED: ENDBRANCH  16  17
DOCKED: ENDBRANCH  15  16
DOCKED: ENDBRANCH  14  15
DOCKED: ENDBRANCH  13  14
DOCKED: ENDBRANCH  12  13
DOCKED: ENDBRANCH   1  12
DOCKED: TORSDOF 9
DOCKED: TER
DOCKED: ENDMDL
________________________________________________________________________________


	BEGINNING GENETIC ALGORITHM DOCKING 92 of 100
Run: 92 Seed: 1831705960 1253131662 [ Run 92 of 100 GA/GALS ]
Beginning LAMARCKIAN GENETIC ALGORITHM (LGA), with a maximum of 2500000 energy evaluations.

Final-Value: -12.796


	FINAL GENETIC ALGORITHM DOCKED STATE
	_______________________________________________


Detailed state:  trans 24.382 -15.198 -0.993 quatxyzw 0.540893 -0.330266 0.745210 0.207416 center 0.056 -0.347 0.144 ntor 9 7.2732 -180.0000 -123.9278 147.8877 72.9931 -42.0871 -80.9272 63.2193 69.3873
State:	 24.382 -15.198  -0.993   0.553 -0.338  0.762 156.058      7.27 -180.00 -123.93  147.89   72.99  -42.09  -80.93   63.22   69.39

DOCKED: MODEL       92
DOCKED: USER    Run = 92
DOCKED: USER    DPF = ligand_dock.biased.dpf
DOCKED: USER  
DOCKED: USER    Estimated Free Energy of Binding    =   -8.87 kcal/mol  [=(1)+(2)+(3)-(4)]
DOCKED: USER    Estimated Inhibition Constant, Ki   =  314.09 nM (nanomolar)  [Temperature = 298.15 K]
DOCKED: USER    
DOCKED: USER    (1) Final Intermolecular Energy     =  -11.56 kcal/mol
DOCKED: USER        vdW + Hbond + desolv Energy     =  -11.56 kcal/mol
DOCKED: USER        Electrostatic Energy            =   +0.00 kcal/mol
DOCKED: USER    (2) Final Total Internal Energy     =   -1.24 kcal/mol
DOCKED: USER    (3) Torsional Free Energy           =   +2.68 kcal/mol
DOCKED: USER    (4) Unbound System's Energy  [=(2)] =   -1.24 kcal/mol
DOCKED: USER    
DOCKED: USER    
DOCKED: USER    NEWDPF move ligand.pdbqt
DOCKED: USER    NEWDPF about 0.056000 -0.347000 0.144000
DOCKED: USER    NEWDPF tran0 24.382071 -15.197776 -0.993262
DOCKED: USER    NEWDPF quaternion0 0.540893 -0.330266 0.745210 0.207416
DOCKED: USER    NEWDPF axisangle0 0.552917 -0.337608 0.761777 156.058027
DOCKED: USER    NEWDPF quat0 0.552917 -0.337608 0.761777 156.058027
DOCKED: USER    NEWDPF dihe0 7.27 -180.00 -123.93 147.89 72.99 -42.09 -80.93 63.22 69.39 
DOCKED: USER  keepresnum = 1 
DOCKED: USER  
DOCKED: REMARK  Name = 
DOCKED: REMARK  9 active torsions:
DOCKED: REMARK  status: ('A' for Active; 'I' for Inactive)
DOCKED: REMARK    1  A    between atoms: C_2  and  C_10
DOCKED: REMARK    2  A    between atoms: N_3  and  C_4
DOCKED: REMARK    3  A    between atoms: C_10  and  C_11
DOCKED: REMARK    4  A    between atoms: C_11  and  C_12
DOCKED: REMARK    5  A    between atoms: C_12  and  C_13
DOCKED: REMARK    6  A    between atoms: C_13  and  C_14
DOCKED: REMARK    7  A    between atoms: C_14  and  C_15
DOCKED: REMARK    8  A    between atoms: C_15  and  C_16
DOCKED: REMARK    9  A    between atoms: N_17  and  O_18
DOCKED: REMARK                            x       y       z     vdW  Elec       q    Type
DOCKED: REMARK                         _______ _______ _______ _____ _____    ______ ____
DOCKED: USER                              x       y       z     vdW  Elec       q    Type
DOCKED: USER                           _______ _______ _______ _____ _____    ______ ____
DOCKED: ROOT
DOCKED: ATOM      1  C   UNL     1      25.132 -16.772  -2.955 -0.23 -0.00    +0.000 C 
DOCKED: ENDROOT
DOCKED: BRANCH   1   3
DOCKED: ATOM      2  O   UNL     1      26.157 -14.718  -2.311 -0.38 -0.00    +0.000 OA
DOCKED: ATOM      3  C   UNL     1      25.944 -15.544  -3.239 -0.55 -0.00    +0.000 C 
DOCKED: ATOM      4  N   UNL     1      26.466 -15.316  -4.557 -0.53 -0.00    +0.000 N 
DOCKED: ATOM      5  H   UNL     1      26.407 -16.051  -5.211 -0.07 +0.00    +0.000 HD
DOCKED: BRANCH   4   6
DOCKED: ATOM      6  C   UNL     1      27.068 -14.083  -4.981 -0.33 -0.00    +0.000 A 
DOCKED: ATOM      7  C   UNL     1      28.171 -14.067  -5.857 -0.31 -0.00    +0.000 A 
DOCKED: ATOM      8  C   UNL     1      28.750 -12.853  -6.238 -0.19 -0.00    +0.000 A 
DOCKED: ATOM      9  C   UNL     1      28.247 -11.648  -5.739 -0.12 -0.00    +0.000 A 
DOCKED: ATOM     10  C   UNL     1      27.169 -11.656  -4.850 -0.17 -0.00    +0.000 A 
DOCKED: ATOM     11  C   UNL     1      26.588 -12.867  -4.466 -0.28 -0.00    +0.000 A 
DOCKED: ENDBRANCH   4   6
DOCKED: ENDBRANCH   1   3
DOCKED: BRANCH   1  12
DOCKED: ATOM     12  C   UNL     1      24.388 -16.623  -1.624 -0.57 -0.00    +0.000 C 
DOCKED: BRANCH  12  13
DOCKED: ATOM     13  C   UNL     1      24.961 -17.576  -0.565 -0.68 -0.00    +0.000 C 
DOCKED: BRANCH  13  14
DOCKED: ATOM     14  C   UNL     1      23.899 -18.521   0.017 -0.62 -0.00    +0.000 C 
DOCKED: BRANCH  14  15
DOCKED: ATOM     15  C   UNL     1      22.767 -18.826  -0.981 -0.82 -0.00    +0.000 C 
DOCKED: BRANCH  15  16
DOCKED: ATOM     16  C   UNL     1      21.416 -18.271  -0.513 -0.76 -0.00    +0.000 C 
DOCKED: BRANCH  16  17
DOCKED: ATOM     17  C   UNL     1      20.283 -19.186  -0.875 -0.89 -0.00    +0.000 C 
DOCKED: ATOM     18  N   UNL     1      19.207 -19.405   0.040 -0.76 -0.00    +0.000 N 
DOCKED: ATOM     19  O   UNL     1      20.268 -19.741  -2.007 -1.85 -0.00    +0.000 OA
DOCKED: ATOM     20  H   UNL     1      19.227 -18.979   0.927 -0.28 -0.00    +0.000 HD
DOCKED: BRANCH  18  21
DOCKED: ATOM     21  O   UNL     1      18.160 -20.193  -0.303 -0.80 -0.00    +0.000 OA
DOCKED: ATOM     22  H   UNL     1      18.344 -20.624  -1.151 -0.38 -0.00    +0.000 HD
DOCKED: ENDBRANCH  18  21
DOCKED: ENDBRANCH  16  17
DOCKED: ENDBRANCH  15  16
DOCKED: ENDBRANCH  14  15
DOCKED: ENDBRANCH  13  14
DOCKED: ENDBRANCH  12  13
DOCKED: ENDBRANCH   1  12
DOCKED: TORSDOF 9
DOCKED: TER
DOCKED: ENDMDL
________________________________________________________________________________


	BEGINNING GENETIC ALGORITHM DOCKING 93 of 100
Run: 93 Seed: 513185358 2019155186 [ Run 93 of 100 GA/GALS ]
Beginning LAMARCKIAN GENETIC ALGORITHM (LGA), with a maximum of 2500000 energy evaluations.

Final-Value: -13.500


	FINAL GENETIC ALGORITHM DOCKED STATE
	_______________________________________________


Detailed state:  trans 24.979 -15.819 0.741 quatxyzw -0.148161 0.317685 -0.722316 -0.596141 center 0.056 -0.347 0.144 ntor 9 66.6256 -16.8125 -49.3011 178.5739 39.5935 -149.3154 180.0000 39.9751 -13.4412
State:	 24.979 -15.819   0.741  -0.185  0.396 -0.900 -106.812     66.63  -16.81  -49.30  178.57   39.59 -149.32  180.00   39.98  -13.44

DOCKED: MODEL       93
DOCKED: USER    Run = 93
DOCKED: USER    DPF = ligand_dock.biased.dpf
DOCKED: USER  
DOCKED: USER    Estimated Free Energy of Binding    =  -10.01 kcal/mol  [=(1)+(2)+(3)-(4)]
DOCKED: USER    Estimated Inhibition Constant, Ki   =   46.25 nM (nanomolar)  [Temperature = 298.15 K]
DOCKED: USER    
DOCKED: USER    (1) Final Intermolecular Energy     =  -12.69 kcal/mol
DOCKED: USER        vdW + Hbond + desolv Energy     =  -12.69 kcal/mol
DOCKED: USER        Electrostatic Energy            =   +0.00 kcal/mol
DOCKED: USER    (2) Final Total Internal Energy     =   -0.81 kcal/mol
DOCKED: USER    (3) Torsional Free Energy           =   +2.68 kcal/mol
DOCKED: USER    (4) Unbound System's Energy  [=(2)] =   -0.81 kcal/mol
DOCKED: USER    
DOCKED: USER    
DOCKED: USER    NEWDPF move ligand.pdbqt
DOCKED: USER    NEWDPF about 0.056000 -0.347000 0.144000
DOCKED: USER    NEWDPF tran0 24.978771 -15.819123 0.740834
DOCKED: USER    NEWDPF quaternion0 -0.148161 0.317685 -0.722316 -0.596141
DOCKED: USER    NEWDPF axisangle0 -0.184537 0.395682 -0.899657 -106.811943
DOCKED: USER    NEWDPF quat0 -0.184537 0.395682 -0.899657 -106.811943
DOCKED: USER    NEWDPF dihe0 66.63 -16.81 -49.30 178.57 39.59 -149.32 180.00 39.98 -13.44 
DOCKED: USER  keepresnum = 1 
DOCKED: USER  
DOCKED: REMARK  Name = 
DOCKED: REMARK  9 active torsions:
DOCKED: REMARK  status: ('A' for Active; 'I' for Inactive)
DOCKED: REMARK    1  A    between atoms: C_2  and  C_10
DOCKED: REMARK    2  A    between atoms: N_3  and  C_4
DOCKED: REMARK    3  A    between atoms: C_10  and  C_11
DOCKED: REMARK    4  A    between atoms: C_11  and  C_12
DOCKED: REMARK    5  A    between atoms: C_12  and  C_13
DOCKED: REMARK    6  A    between atoms: C_13  and  C_14
DOCKED: REMARK    7  A    between atoms: C_14  and  C_15
DOCKED: REMARK    8  A    between atoms: C_15  and  C_16
DOCKED: REMARK    9  A    between atoms: N_17  and  O_18
DOCKED: REMARK                            x       y       z     vdW  Elec       q    Type
DOCKED: REMARK                         _______ _______ _______ _____ _____    ______ ____
DOCKED: USER                              x       y       z     vdW  Elec       q    Type
DOCKED: USER                           _______ _______ _______ _____ _____    ______ ____
DOCKED: ROOT
DOCKED: ATOM      1  C   UNL     1      27.435 -15.757  -0.181 -0.35 -0.00    +0.000 C 
DOCKED: ENDROOT
DOCKED: BRANCH   1   3
DOCKED: ATOM      2  O   UNL     1      26.917 -13.501   0.390 -0.30 -0.00    +0.000 OA
DOCKED: ATOM      3  C   UNL     1      27.445 -14.586   0.754 -0.29 -0.00    +0.000 C 
DOCKED: ATOM      4  N   UNL     1      28.054 -14.705   2.050 -0.24 -0.00    +0.000 N 
DOCKED: ATOM      5  H   UNL     1      28.319 -15.604   2.355 -1.34 -0.00    +0.000 HD
DOCKED: BRANCH   4   6
DOCKED: ATOM      6  C   UNL     1      28.301 -13.595   2.927 -0.28 -0.00    +0.000 A 
DOCKED: ATOM      7  C   UNL     1      29.020 -12.464   2.495 -0.12 -0.00    +0.000 A 
DOCKED: ATOM      8  C   UNL     1      29.263 -11.406   3.376 -0.10 -0.00    +0.000 A 
DOCKED: ATOM      9  C   UNL     1      28.808 -11.472   4.695 -0.21 +0.00    +0.000 A 
DOCKED: ATOM     10  C   UNL     1      28.116 -12.601   5.140 -0.38 -0.00    +0.000 A 
DOCKED: ATOM     11  C   UNL     1      27.871 -13.662   4.262 -0.46 -0.00    +0.000 A 
DOCKED: ENDBRANCH   4   6
DOCKED: ENDBRANCH   1   3
DOCKED: BRANCH   1  12
DOCKED: ATOM     12  C   UNL     1      26.113 -16.522  -0.065 -0.15 -0.00    +0.000 C 
DOCKED: BRANCH  12  13
DOCKED: ATOM     13  C   UNL     1      25.941 -17.503  -1.234 -0.58 -0.00    +0.000 C 
DOCKED: BRANCH  13  14
DOCKED: ATOM     14  C   UNL     1      24.475 -17.657  -1.664 -0.68 -0.00    +0.000 C 
DOCKED: BRANCH  14  15
DOCKED: ATOM     15  C   UNL     1      23.676 -18.580  -0.726 -0.82 -0.00    +0.000 C 
DOCKED: BRANCH  15  16
DOCKED: ATOM     16  C   UNL     1      22.576 -19.349  -1.469 -0.61 -0.00    +0.000 C 
DOCKED: BRANCH  16  17
DOCKED: ATOM     17  C   UNL     1      21.205 -18.914  -1.038 -0.85 -0.00    +0.000 C 
DOCKED: ATOM     18  N   UNL     1      20.134 -19.857  -0.967 -0.81 -0.00    +0.000 N 
DOCKED: ATOM     19  O   UNL     1      21.008 -17.714  -0.708 -2.13 -0.00    +0.000 OA
DOCKED: ATOM     20  H   UNL     1      20.288 -20.792  -1.237 -0.45 -0.00    +0.000 HD
DOCKED: BRANCH  18  21
DOCKED: ATOM     21  O   UNL     1      18.908 -19.478  -0.534 -0.93 -0.00    +0.000 OA
DOCKED: ATOM     22  H   UNL     1      18.518 -18.859  -1.170 -0.61 -0.00    +0.000 HD
DOCKED: ENDBRANCH  18  21
DOCKED: ENDBRANCH  16  17
DOCKED: ENDBRANCH  15  16
DOCKED: ENDBRANCH  14  15
DOCKED: ENDBRANCH  13  14
DOCKED: ENDBRANCH  12  13
DOCKED: ENDBRANCH   1  12
DOCKED: TORSDOF 9
DOCKED: TER
DOCKED: ENDMDL
________________________________________________________________________________


	BEGINNING GENETIC ALGORITHM DOCKING 94 of 100
Run: 94 Seed: 1262966095 680558167 [ Run 94 of 100 GA/GALS ]
Beginning LAMARCKIAN GENETIC ALGORITHM (LGA), with a maximum of 2500000 energy evaluations.

Final-Value: -13.685


	FINAL GENETIC ALGORITHM DOCKED STATE
	_______________________________________________


Detailed state:  trans 25.686 -13.428 -1.017 quatxyzw 0.386997 0.145861 -0.831009 -0.371998 center 0.056 -0.347 0.144 ntor 9 -112.3481 173.6067 -93.4472 34.5677 178.6612 40.2815 -89.3597 170.3805 42.9771
State:	 25.686 -13.428  -1.017   0.417  0.157 -0.895 -136.322   -112.35  173.61  -93.45   34.57  178.66   40.28  -89.36  170.38   42.98

DOCKED: MODEL       94
DOCKED: USER    Run = 94
DOCKED: USER    DPF = ligand_dock.biased.dpf
DOCKED: USER  
DOCKED: USER    Estimated Free Energy of Binding    =   -9.99 kcal/mol  [=(1)+(2)+(3)-(4)]
DOCKED: USER    Estimated Inhibition Constant, Ki   =   47.62 nM (nanomolar)  [Temperature = 298.15 K]
DOCKED: USER    
DOCKED: USER    (1) Final Intermolecular Energy     =  -12.67 kcal/mol
DOCKED: USER        vdW + Hbond + desolv Energy     =  -12.67 kcal/mol
DOCKED: USER        Electrostatic Energy            =   +0.00 kcal/mol
DOCKED: USER    (2) Final Total Internal Energy     =   -1.01 kcal/mol
DOCKED: USER    (3) Torsional Free Energy           =   +2.68 kcal/mol
DOCKED: USER    (4) Unbound System's Energy  [=(2)] =   -1.01 kcal/mol
DOCKED: USER    
DOCKED: USER    
DOCKED: USER    NEWDPF move ligand.pdbqt
DOCKED: USER    NEWDPF about 0.056000 -0.347000 0.144000
DOCKED: USER    NEWDPF tran0 25.686498 -13.427928 -1.016903
DOCKED: USER    NEWDPF quaternion0 0.386997 0.145861 -0.831009 -0.371998
DOCKED: USER    NEWDPF axisangle0 0.416917 0.157138 -0.895258 -136.322165
DOCKED: USER    NEWDPF quat0 0.416917 0.157138 -0.895258 -136.322165
DOCKED: USER    NEWDPF dihe0 -112.35 173.61 -93.45 34.57 178.66 40.28 -89.36 170.38 42.98 
DOCKED: USER  keepresnum = 1 
DOCKED: USER  
DOCKED: REMARK  Name = 
DOCKED: REMARK  9 active torsions:
DOCKED: REMARK  status: ('A' for Active; 'I' for Inactive)
DOCKED: REMARK    1  A    between atoms: C_2  and  C_10
DOCKED: REMARK    2  A    between atoms: N_3  and  C_4
DOCKED: REMARK    3  A    between atoms: C_10  and  C_11
DOCKED: REMARK    4  A    between atoms: C_11  and  C_12
DOCKED: REMARK    5  A    between atoms: C_12  and  C_13
DOCKED: REMARK    6  A    between atoms: C_13  and  C_14
DOCKED: REMARK    7  A    between atoms: C_14  and  C_15
DOCKED: REMARK    8  A    between atoms: C_15  and  C_16
DOCKED: REMARK    9  A    between atoms: N_17  and  O_18
DOCKED: REMARK                            x       y       z     vdW  Elec       q    Type
DOCKED: REMARK                         _______ _______ _______ _____ _____    ______ ____
DOCKED: USER                              x       y       z     vdW  Elec       q    Type
DOCKED: USER                           _______ _______ _______ _____ _____    ______ ____
DOCKED: ROOT
DOCKED: ATOM      1  C   UNL     1      27.308 -15.242  -0.033 -0.33 -0.00    +0.000 C 
DOCKED: ENDROOT
DOCKED: BRANCH   1   3
DOCKED: ATOM      2  O   UNL     1      26.232 -13.455   1.123 -0.39 -0.00    +0.000 OA
DOCKED: ATOM      3  C   UNL     1      27.140 -14.330   1.145 -0.20 -0.00    +0.000 C 
DOCKED: ATOM      4  N   UNL     1      28.009 -14.455   2.282 -0.31 -0.00    +0.000 N 
DOCKED: ATOM      5  H   UNL     1      28.602 -15.240   2.326 -1.68 -0.00    +0.000 HD
DOCKED: BRANCH   4   6
DOCKED: ATOM      6  C   UNL     1      28.069 -13.504   3.357 -0.33 -0.00    +0.000 A 
DOCKED: ATOM      7  C   UNL     1      28.129 -13.919   4.701 -0.50 -0.00    +0.000 A 
DOCKED: ATOM      8  C   UNL     1      28.166 -12.972   5.729 -0.42 -0.00    +0.000 A 
DOCKED: ATOM      9  C   UNL     1      28.128 -11.608   5.429 -0.36 +0.00    +0.000 A 
DOCKED: ATOM     10  C   UNL     1      28.043 -11.188   4.099 -0.27 +0.00    +0.000 A 
DOCKED: ATOM     11  C   UNL     1      28.006 -12.131   3.069 -0.22 -0.00    +0.000 A 
DOCKED: ENDBRANCH   4   6
DOCKED: ENDBRANCH   1   3
DOCKED: BRANCH   1  12
DOCKED: ATOM     12  C   UNL     1      26.378 -14.815  -1.174 -0.36 -0.00    +0.000 C 
DOCKED: BRANCH  12  13
DOCKED: ATOM     13  C   UNL     1      25.712 -16.037  -1.824 -0.53 -0.00    +0.000 C 
DOCKED: BRANCH  13  14
DOCKED: ATOM     14  C   UNL     1      26.407 -17.355  -1.454 -0.49 -0.00    +0.000 C 
DOCKED: BRANCH  14  15
DOCKED: ATOM     15  C   UNL     1      25.541 -18.249  -0.549 -0.68 -0.00    +0.000 C 
DOCKED: BRANCH  15  16
DOCKED: ATOM     16  C   UNL     1      24.285 -17.523  -0.049 -0.44 -0.00    +0.000 C 
DOCKED: BRANCH  16  17
DOCKED: ATOM     17  C   UNL     1      23.058 -17.956  -0.797 -0.81 -0.00    +0.000 C 
DOCKED: ATOM     18  N   UNL     1      21.760 -17.550  -0.357 -0.71 -0.00    +0.000 N 
DOCKED: ATOM     19  O   UNL     1      23.178 -18.657  -1.837 -0.79 -0.00    +0.000 OA
DOCKED: ATOM     20  H   UNL     1      21.669 -17.011   0.463 -0.04 -0.00    +0.000 HD
DOCKED: BRANCH  18  21
DOCKED: ATOM     21  O   UNL     1      20.654 -17.899  -1.056 -2.21 -0.00    +0.000 OA
DOCKED: ATOM     22  H   UNL     1      20.258 -17.106  -1.450 -0.61 -0.00    +0.000 HD
DOCKED: ENDBRANCH  18  21
DOCKED: ENDBRANCH  16  17
DOCKED: ENDBRANCH  15  16
DOCKED: ENDBRANCH  14  15
DOCKED: ENDBRANCH  13  14
DOCKED: ENDBRANCH  12  13
DOCKED: ENDBRANCH   1  12
DOCKED: TORSDOF 9
DOCKED: TER
DOCKED: ENDMDL
________________________________________________________________________________


	BEGINNING GENETIC ALGORITHM DOCKING 95 of 100
Run: 95 Seed: 1752157115 1265071 [ Run 95 of 100 GA/GALS ]
Beginning LAMARCKIAN GENETIC ALGORITHM (LGA), with a maximum of 2500000 energy evaluations.

Final-Value: -14.081


	FINAL GENETIC ALGORITHM DOCKED STATE
	_______________________________________________


Detailed state:  trans 24.968 -14.837 0.406 quatxyzw 0.066366 0.369323 -0.708081 -0.598178 center 0.056 -0.347 0.144 ntor 9 2.8368 -171.0298 -46.3996 -175.9806 42.9116 6.1786 -147.4513 -28.4849 48.7963
State:	 24.968 -14.837   0.406   0.083  0.461 -0.884 -106.521      2.84 -171.03  -46.40 -175.98   42.91    6.18 -147.45  -28.48   48.80

DOCKED: MODEL       95
DOCKED: USER    Run = 95
DOCKED: USER    DPF = ligand_dock.biased.dpf
DOCKED: USER  
DOCKED: USER    Estimated Free Energy of Binding    =  -10.23 kcal/mol  [=(1)+(2)+(3)-(4)]
DOCKED: USER    Estimated Inhibition Constant, Ki   =   31.46 nM (nanomolar)  [Temperature = 298.15 K]
DOCKED: USER    
DOCKED: USER    (1) Final Intermolecular Energy     =  -12.92 kcal/mol
DOCKED: USER        vdW + Hbond + desolv Energy     =  -12.92 kcal/mol
DOCKED: USER        Electrostatic Energy            =   +0.00 kcal/mol
DOCKED: USER    (2) Final Total Internal Energy     =   -1.16 kcal/mol
DOCKED: USER    (3) Torsional Free Energy           =   +2.68 kcal/mol
DOCKED: USER    (4) Unbound System's Energy  [=(2)] =   -1.16 kcal/mol
DOCKED: USER    
DOCKED: USER    
DOCKED: USER    NEWDPF move ligand.pdbqt
DOCKED: USER    NEWDPF about 0.056000 -0.347000 0.144000
DOCKED: USER    NEWDPF tran0 24.967792 -14.836606 0.406260
DOCKED: USER    NEWDPF quaternion0 0.066366 0.369323 -0.708081 -0.598178
DOCKED: USER    NEWDPF axisangle0 0.082817 0.460869 -0.883596 -106.520960
DOCKED: USER    NEWDPF quat0 0.082817 0.460869 -0.883596 -106.520960
DOCKED: USER    NEWDPF dihe0 2.84 -171.03 -46.40 -175.98 42.91 6.18 -147.45 -28.48 48.80 
DOCKED: USER  keepresnum = 1 
DOCKED: USER  
DOCKED: REMARK  Name = 
DOCKED: REMARK  9 active torsions:
DOCKED: REMARK  status: ('A' for Active; 'I' for Inactive)
DOCKED: REMARK    1  A    between atoms: C_2  and  C_10
DOCKED: REMARK    2  A    between atoms: N_3  and  C_4
DOCKED: REMARK    3  A    between atoms: C_10  and  C_11
DOCKED: REMARK    4  A    between atoms: C_11  and  C_12
DOCKED: REMARK    5  A    between atoms: C_12  and  C_13
DOCKED: REMARK    6  A    between atoms: C_13  and  C_14
DOCKED: REMARK    7  A    between atoms: C_14  and  C_15
DOCKED: REMARK    8  A    between atoms: C_15  and  C_16
DOCKED: REMARK    9  A    between atoms: N_17  and  O_18
DOCKED: REMARK                            x       y       z     vdW  Elec       q    Type
DOCKED: REMARK                         _______ _______ _______ _____ _____    ______ ____
DOCKED: USER                              x       y       z     vdW  Elec       q    Type
DOCKED: USER                           _______ _______ _______ _____ _____    ______ ____
DOCKED: ROOT
DOCKED: ATOM      1  C   UNL     1      27.576 -14.906   0.120 -0.29 -0.00    +0.000 C 
DOCKED: ENDROOT
DOCKED: BRANCH   1   3
DOCKED: ATOM      2  O   UNL     1      26.593 -13.179   1.438 -0.38 -0.00    +0.000 OA
DOCKED: ATOM      3  C   UNL     1      27.441 -14.110   1.383 -0.30 -0.00    +0.000 C 
DOCKED: ATOM      4  N   UNL     1      28.276 -14.407   2.513 -0.30 -0.00    +0.000 N 
DOCKED: ATOM      5  H   UNL     1      28.817 -15.230   2.485 -1.89 -0.00    +0.000 HD
DOCKED: BRANCH   4   6
DOCKED: ATOM      6  C   UNL     1      28.374 -13.577   3.681 -0.34 -0.00    +0.000 A 
DOCKED: ATOM      7  C   UNL     1      28.697 -14.118   4.941 -0.46 -0.00    +0.000 A 
DOCKED: ATOM      8  C   UNL     1      28.765 -13.290   6.066 -0.39 -0.00    +0.000 A 
DOCKED: ATOM      9  C   UNL     1      28.498 -11.923   5.949 -0.35 +0.00    +0.000 A 
DOCKED: ATOM     10  C   UNL     1      28.152 -11.383   4.708 -0.30 +0.00    +0.000 A 
DOCKED: ATOM     11  C   UNL     1      28.082 -12.207   3.581 -0.25 -0.00    +0.000 A 
DOCKED: ENDBRANCH   4   6
DOCKED: ENDBRANCH   1   3
DOCKED: BRANCH   1  12
DOCKED: ATOM     12  C   UNL     1      26.207 -15.432  -0.327 -0.32 -0.00    +0.000 C 
DOCKED: BRANCH  12  13
DOCKED: ATOM     13  C   UNL     1      26.277 -16.929  -0.659 -0.55 -0.00    +0.000 C 
DOCKED: BRANCH  13  14
DOCKED: ATOM     14  C   UNL     1      24.987 -17.677  -0.292 -0.65 -0.00    +0.000 C 
DOCKED: BRANCH  14  15
DOCKED: ATOM     15  C   UNL     1      23.854 -17.438  -1.306 -0.71 -0.00    +0.000 C 
DOCKED: BRANCH  15  16
DOCKED: ATOM     16  C   UNL     1      22.476 -17.387  -0.635 -0.75 -0.00    +0.000 C 
DOCKED: BRANCH  16  17
DOCKED: ATOM     17  C   UNL     1      21.668 -18.617  -0.930 -0.83 -0.00    +0.000 C 
DOCKED: ATOM     18  N   UNL     1      20.259 -18.523  -1.149 -0.71 -0.00    +0.000 N 
DOCKED: ATOM     19  O   UNL     1      22.243 -19.735  -1.013 -0.74 -0.00    +0.000 OA
DOCKED: ATOM     20  H   UNL     1      19.810 -17.650  -1.072 -0.47 -0.00    +0.000 HD
DOCKED: BRANCH  18  21
DOCKED: ATOM     21  O   UNL     1      19.534 -19.624  -1.462 -1.54 -0.00    +0.000 OA
DOCKED: ATOM     22  H   UNL     1      20.111 -20.403  -1.454 -0.38 -0.00    +0.000 HD
DOCKED: ENDBRANCH  18  21
DOCKED: ENDBRANCH  16  17
DOCKED: ENDBRANCH  15  16
DOCKED: ENDBRANCH  14  15
DOCKED: ENDBRANCH  13  14
DOCKED: ENDBRANCH  12  13
DOCKED: ENDBRANCH   1  12
DOCKED: TORSDOF 9
DOCKED: TER
DOCKED: ENDMDL
________________________________________________________________________________


	BEGINNING GENETIC ALGORITHM DOCKING 96 of 100
Run: 96 Seed: 1143284046 1303309833 [ Run 96 of 100 GA/GALS ]
Beginning LAMARCKIAN GENETIC ALGORITHM (LGA), with a maximum of 2500000 energy evaluations.

Final-Value: -14.155


	FINAL GENETIC ALGORITHM DOCKED STATE
	_______________________________________________


Detailed state:  trans 27.169 -14.989 -1.640 quatxyzw 0.313474 -0.713186 0.475256 -0.408940 center 0.056 -0.347 0.144 ntor 9 22.8729 113.7195 -79.0129 175.7068 18.8142 155.9479 50.2908 157.6905 106.2505
State:	 27.169 -14.989  -1.640   0.344 -0.782  0.521 -131.723     22.87  113.72  -79.01  175.71   18.81  155.95   50.29  157.69  106.25

DOCKED: MODEL       96
DOCKED: USER    Run = 96
DOCKED: USER    DPF = ligand_dock.biased.dpf
DOCKED: USER  
DOCKED: USER    Estimated Free Energy of Binding    =  -10.04 kcal/mol  [=(1)+(2)+(3)-(4)]
DOCKED: USER    Estimated Inhibition Constant, Ki   =   43.69 nM (nanomolar)  [Temperature = 298.15 K]
DOCKED: USER    
DOCKED: USER    (1) Final Intermolecular Energy     =  -12.72 kcal/mol
DOCKED: USER        vdW + Hbond + desolv Energy     =  -12.72 kcal/mol
DOCKED: USER        Electrostatic Energy            =   +0.00 kcal/mol
DOCKED: USER    (2) Final Total Internal Energy     =   -1.43 kcal/mol
DOCKED: USER    (3) Torsional Free Energy           =   +2.68 kcal/mol
DOCKED: USER    (4) Unbound System's Energy  [=(2)] =   -1.43 kcal/mol
DOCKED: USER    
DOCKED: USER    
DOCKED: USER    NEWDPF move ligand.pdbqt
DOCKED: USER    NEWDPF about 0.056000 -0.347000 0.144000
DOCKED: USER    NEWDPF tran0 27.169189 -14.988504 -1.640495
DOCKED: USER    NEWDPF quaternion0 0.313474 -0.713186 0.475256 -0.408940
DOCKED: USER    NEWDPF axisangle0 0.343510 -0.781521 0.520794 -131.723478
DOCKED: USER    NEWDPF quat0 0.343510 -0.781521 0.520794 -131.723478
DOCKED: USER    NEWDPF dihe0 22.87 113.72 -79.01 175.71 18.81 155.95 50.29 157.69 106.25 
DOCKED: USER  keepresnum = 1 
DOCKED: USER  
DOCKED: REMARK  Name = 
DOCKED: REMARK  9 active torsions:
DOCKED: REMARK  status: ('A' for Active; 'I' for Inactive)
DOCKED: REMARK    1  A    between atoms: C_2  and  C_10
DOCKED: REMARK    2  A    between atoms: N_3  and  C_4
DOCKED: REMARK    3  A    between atoms: C_10  and  C_11
DOCKED: REMARK    4  A    between atoms: C_11  and  C_12
DOCKED: REMARK    5  A    between atoms: C_12  and  C_13
DOCKED: REMARK    6  A    between atoms: C_13  and  C_14
DOCKED: REMARK    7  A    between atoms: C_14  and  C_15
DOCKED: REMARK    8  A    between atoms: C_15  and  C_16
DOCKED: REMARK    9  A    between atoms: N_17  and  O_18
DOCKED: REMARK                            x       y       z     vdW  Elec       q    Type
DOCKED: REMARK                         _______ _______ _______ _____ _____    ______ ____
DOCKED: USER                              x       y       z     vdW  Elec       q    Type
DOCKED: USER                           _______ _______ _______ _____ _____    ______ ____
DOCKED: ROOT
DOCKED: ATOM      1  C   UNL     1      25.136 -14.786  -3.288 -0.47 -0.00    +0.000 C 
DOCKED: ENDROOT
DOCKED: BRANCH   1   3
DOCKED: ATOM      2  O   UNL     1      25.871 -16.000  -5.204 -1.11 +0.00    +0.000 OA
DOCKED: ATOM      3  C   UNL     1      26.202 -15.310  -4.202 -0.57 -0.00    +0.000 C 
DOCKED: ATOM      4  N   UNL     1      27.584 -15.029  -3.931 -0.30 -0.00    +0.000 N 
DOCKED: ATOM      5  H   UNL     1      27.793 -14.368  -3.231 +0.01 -0.00    +0.000 HD
DOCKED: BRANCH   4   6
DOCKED: ATOM      6  C   UNL     1      28.681 -15.655  -4.616 -0.29 -0.00    +0.000 A 
DOCKED: ATOM      7  C   UNL     1      29.049 -15.267  -5.919 -0.34 -0.00    +0.000 A 
DOCKED: ATOM      8  C   UNL     1      30.109 -15.906  -6.570 -0.30 -0.00    +0.000 A 
DOCKED: ATOM      9  C   UNL     1      30.799 -16.944  -5.937 -0.25 -0.00    +0.000 A 
DOCKED: ATOM     10  C   UNL     1      30.424 -17.351  -4.655 -0.24 -0.00    +0.000 A 
DOCKED: ATOM     11  C   UNL     1      29.365 -16.716  -4.000 -0.21 -0.00    +0.000 A 
DOCKED: ENDBRANCH   4   6
DOCKED: ENDBRANCH   1   3
DOCKED: BRANCH   1  12
DOCKED: ATOM     12  C   UNL     1      25.641 -14.757  -1.841 -0.29 -0.00    +0.000 C 
DOCKED: BRANCH  12  13
DOCKED: ATOM     13  C   UNL     1      25.701 -16.175  -1.253 -0.53 -0.00    +0.000 C 
DOCKED: BRANCH  13  14
DOCKED: ATOM     14  C   UNL     1      24.668 -17.120  -1.885 -0.63 -0.00    +0.000 C 
DOCKED: BRANCH  14  15
DOCKED: ATOM     15  C   UNL     1      23.891 -17.935  -0.836 -0.79 -0.00    +0.000 C 
DOCKED: BRANCH  15  16
DOCKED: ATOM     16  C   UNL     1      23.066 -19.061  -1.472 -0.74 -0.00    +0.000 C 
DOCKED: BRANCH  16  17
DOCKED: ATOM     17  C   UNL     1      21.593 -18.854  -1.269 -0.69 -0.00    +0.000 C 
DOCKED: ATOM     18  N   UNL     1      20.656 -19.848  -1.691 -0.74 -0.00    +0.000 N 
DOCKED: ATOM     19  O   UNL     1      21.184 -17.808  -0.697 -1.99 -0.00    +0.000 OA
DOCKED: ATOM     20  H   UNL     1      20.978 -20.659  -2.148 -0.39 -0.00    +0.000 HD
DOCKED: BRANCH  18  21
DOCKED: ATOM     21  O   UNL     1      19.330 -19.686  -1.467 -1.34 -0.00    +0.000 OA
DOCKED: ATOM     22  H   UNL     1      19.135 -18.743  -1.357 -0.52 -0.00    +0.000 HD
DOCKED: ENDBRANCH  18  21
DOCKED: ENDBRANCH  16  17
DOCKED: ENDBRANCH  15  16
DOCKED: ENDBRANCH  14  15
DOCKED: ENDBRANCH  13  14
DOCKED: ENDBRANCH  12  13
DOCKED: ENDBRANCH   1  12
DOCKED: TORSDOF 9
DOCKED: TER
DOCKED: ENDMDL
________________________________________________________________________________


	BEGINNING GENETIC ALGORITHM DOCKING 97 of 100
Run: 97 Seed: 1064373006 825364943 [ Run 97 of 100 GA/GALS ]
Beginning LAMARCKIAN GENETIC ALGORITHM (LGA), with a maximum of 2500000 energy evaluations.

Final-Value: -15.577


	FINAL GENETIC ALGORITHM DOCKED STATE
	_______________________________________________


Detailed state:  trans 25.419 -16.317 0.628 quatxyzw -0.119644 0.394294 -0.565429 -0.714498 center 0.056 -0.347 0.144 ntor 9 4.7176 -179.9574 179.1040 33.5811 -34.9879 -153.5998 -173.5463 51.1953 -60.1030
State:	 25.419 -16.317   0.628  -0.171  0.564 -0.808 -88.796      4.72 -179.96  179.10   33.58  -34.99 -153.60 -173.55   51.20  -60.10

DOCKED: MODEL       97
DOCKED: USER    Run = 97
DOCKED: USER    DPF = ligand_dock.biased.dpf
DOCKED: USER  
DOCKED: USER    Estimated Free Energy of Binding    =  -11.64 kcal/mol  [=(1)+(2)+(3)-(4)]
DOCKED: USER    Estimated Inhibition Constant, Ki   =    2.94 nM (nanomolar)  [Temperature = 298.15 K]
DOCKED: USER    
DOCKED: USER    (1) Final Intermolecular Energy     =  -14.32 kcal/mol
DOCKED: USER        vdW + Hbond + desolv Energy     =  -14.32 kcal/mol
DOCKED: USER        Electrostatic Energy            =   +0.00 kcal/mol
DOCKED: USER    (2) Final Total Internal Energy     =   -1.25 kcal/mol
DOCKED: USER    (3) Torsional Free Energy           =   +2.68 kcal/mol
DOCKED: USER    (4) Unbound System's Energy  [=(2)] =   -1.25 kcal/mol
DOCKED: USER    
DOCKED: USER    
DOCKED: USER    NEWDPF move ligand.pdbqt
DOCKED: USER    NEWDPF about 0.056000 -0.347000 0.144000
DOCKED: USER    NEWDPF tran0 25.418946 -16.316836 0.628233
DOCKED: USER    NEWDPF quaternion0 -0.119644 0.394294 -0.565429 -0.714498
DOCKED: USER    NEWDPF axisangle0 -0.171009 0.563570 -0.808174 -88.795809
DOCKED: USER    NEWDPF quat0 -0.171009 0.563570 -0.808174 -88.795809
DOCKED: USER    NEWDPF dihe0 4.72 -179.96 179.10 33.58 -34.99 -153.60 -173.55 51.20 -60.10 
DOCKED: USER  keepresnum = 1 
DOCKED: USER  
DOCKED: REMARK  Name = 
DOCKED: REMARK  9 active torsions:
DOCKED: REMARK  status: ('A' for Active; 'I' for Inactive)
DOCKED: REMARK    1  A    between atoms: C_2  and  C_10
DOCKED: REMARK    2  A    between atoms: N_3  and  C_4
DOCKED: REMARK    3  A    between atoms: C_10  and  C_11
DOCKED: REMARK    4  A    between atoms: C_11  and  C_12
DOCKED: REMARK    5  A    between atoms: C_12  and  C_13
DOCKED: REMARK    6  A    between atoms: C_13  and  C_14
DOCKED: REMARK    7  A    between atoms: C_14  and  C_15
DOCKED: REMARK    8  A    between atoms: C_15  and  C_16
DOCKED: REMARK    9  A    between atoms: N_17  and  O_18
DOCKED: REMARK                            x       y       z     vdW  Elec       q    Type
DOCKED: REMARK                         _______ _______ _______ _____ _____    ______ ____
DOCKED: USER                              x       y       z     vdW  Elec       q    Type
DOCKED: USER                           _______ _______ _______ _____ _____    ______ ____
DOCKED: ROOT
DOCKED: ATOM      1  C   UNL     1      27.672 -15.243  -0.183 -0.30 -0.00    +0.000 C 
DOCKED: ENDROOT
DOCKED: BRANCH   1   3
DOCKED: ATOM      2  O   UNL     1      26.440 -13.588   1.014 -0.37 -0.00    +0.000 OA
DOCKED: ATOM      3  C   UNL     1      27.382 -14.426   1.040 -0.29 -0.00    +0.000 C 
DOCKED: ATOM      4  N   UNL     1      28.176 -14.598   2.224 -0.25 -0.00    +0.000 N 
DOCKED: ATOM      5  H   UNL     1      28.799 -15.361   2.257 -1.77 -0.00    +0.000 HD
DOCKED: BRANCH   4   6
DOCKED: ATOM      6  C   UNL     1      28.119 -13.726   3.365 -0.35 -0.00    +0.000 A 
DOCKED: ATOM      7  C   UNL     1      28.239 -14.225   4.676 -0.51 -0.00    +0.000 A 
DOCKED: ATOM      8  C   UNL     1      28.160 -13.356   5.769 -0.38 -0.00    +0.000 A 
DOCKED: ATOM      9  C   UNL     1      27.945 -11.990   5.567 -0.36 +0.00    +0.000 A 
DOCKED: ATOM     10  C   UNL     1      27.800 -11.491   4.270 -0.30 +0.00    +0.000 A 
DOCKED: ATOM     11  C   UNL     1      27.878 -12.356   3.174 -0.25 -0.00    +0.000 A 
DOCKED: ENDBRANCH   4   6
DOCKED: ENDBRANCH   1   3
DOCKED: BRANCH   1  12
DOCKED: ATOM     12  C   UNL     1      26.659 -16.385  -0.313 -0.45 -0.00    +0.000 C 
DOCKED: BRANCH  12  13
DOCKED: ATOM     13  C   UNL     1      25.868 -16.270  -1.625 -0.53 -0.00    +0.000 C 
DOCKED: BRANCH  13  14
DOCKED: ATOM     14  C   UNL     1      24.361 -16.492  -1.428 -0.53 -0.00    +0.000 C 
DOCKED: BRANCH  14  15
DOCKED: ATOM     15  C   UNL     1      23.981 -17.983  -1.400 -0.76 -0.00    +0.000 C 
DOCKED: BRANCH  15  16
DOCKED: ATOM     16  C   UNL     1      22.962 -18.300  -0.298 -0.82 -0.00    +0.000 C 
DOCKED: BRANCH  16  17
DOCKED: ATOM     17  C   UNL     1      21.574 -18.452  -0.850 -0.82 -0.00    +0.000 C 
DOCKED: ATOM     18  N   UNL     1      21.150 -19.695  -1.414 -0.70 -0.00    +0.000 N 
DOCKED: ATOM     19  O   UNL     1      20.770 -17.483  -0.789 -2.07 -0.00    +0.000 OA
DOCKED: ATOM     20  H   UNL     1      21.784 -20.446  -1.471 -0.29 -0.00    +0.000 HD
DOCKED: BRANCH  18  21
DOCKED: ATOM     21  O   UNL     1      19.884 -19.850  -1.870 -1.84 -0.00    +0.000 OA
DOCKED: ATOM     22  H   UNL     1      19.415 -19.003  -1.812 -0.39 -0.00    +0.000 HD
DOCKED: ENDBRANCH  18  21
DOCKED: ENDBRANCH  16  17
DOCKED: ENDBRANCH  15  16
DOCKED: ENDBRANCH  14  15
DOCKED: ENDBRANCH  13  14
DOCKED: ENDBRANCH  12  13
DOCKED: ENDBRANCH   1  12
DOCKED: TORSDOF 9
DOCKED: TER
DOCKED: ENDMDL
________________________________________________________________________________


	BEGINNING GENETIC ALGORITHM DOCKING 98 of 100
Run: 98 Seed: 513841559 1197695028 [ Run 98 of 100 GA/GALS ]
Beginning LAMARCKIAN GENETIC ALGORITHM (LGA), with a maximum of 2500000 energy evaluations.

Final-Value: -13.808


	FINAL GENETIC ALGORITHM DOCKED STATE
	_______________________________________________


Detailed state:  trans 25.332 -15.122 0.971 quatxyzw -0.021525 0.476056 -0.608905 -0.634147 center 0.056 -0.347 0.144 ntor 9 15.5605 63.8612 -69.0848 177.5616 -40.7384 -35.4229 180.0000 -43.4793 1.1768
State:	 25.332 -15.122   0.971  -0.028  0.616 -0.787 -101.286     15.56   63.86  -69.08  177.56  -40.74  -35.42  180.00  -43.48    1.18

DOCKED: MODEL       98
DOCKED: USER    Run = 98
DOCKED: USER    DPF = ligand_dock.biased.dpf
DOCKED: USER  
DOCKED: USER    Estimated Free Energy of Binding    =   -9.91 kcal/mol  [=(1)+(2)+(3)-(4)]
DOCKED: USER    Estimated Inhibition Constant, Ki   =   54.31 nM (nanomolar)  [Temperature = 298.15 K]
DOCKED: USER    
DOCKED: USER    (1) Final Intermolecular Energy     =  -12.60 kcal/mol
DOCKED: USER        vdW + Hbond + desolv Energy     =  -12.60 kcal/mol
DOCKED: USER        Electrostatic Energy            =   +0.00 kcal/mol
DOCKED: USER    (2) Final Total Internal Energy     =   -1.21 kcal/mol
DOCKED: USER    (3) Torsional Free Energy           =   +2.68 kcal/mol
DOCKED: USER    (4) Unbound System's Energy  [=(2)] =   -1.21 kcal/mol
DOCKED: USER    
DOCKED: USER    
DOCKED: USER    NEWDPF move ligand.pdbqt
DOCKED: USER    NEWDPF about 0.056000 -0.347000 0.144000
DOCKED: USER    NEWDPF tran0 25.331792 -15.122309 0.970787
DOCKED: USER    NEWDPF quaternion0 -0.021525 0.476056 -0.608905 -0.634147
DOCKED: USER    NEWDPF axisangle0 -0.027838 0.615686 -0.787500 -101.286500
DOCKED: USER    NEWDPF quat0 -0.027838 0.615686 -0.787500 -101.286500
DOCKED: USER    NEWDPF dihe0 15.56 63.86 -69.08 177.56 -40.74 -35.42 180.00 -43.48 1.18 
DOCKED: USER  keepresnum = 1 
DOCKED: USER  
DOCKED: REMARK  Name = 
DOCKED: REMARK  9 active torsions:
DOCKED: REMARK  status: ('A' for Active; 'I' for Inactive)
DOCKED: REMARK    1  A    between atoms: C_2  and  C_10
DOCKED: REMARK    2  A    between atoms: N_3  and  C_4
DOCKED: REMARK    3  A    between atoms: C_10  and  C_11
DOCKED: REMARK    4  A    between atoms: C_11  and  C_12
DOCKED: REMARK    5  A    between atoms: C_12  and  C_13
DOCKED: REMARK    6  A    between atoms: C_13  and  C_14
DOCKED: REMARK    7  A    between atoms: C_14  and  C_15
DOCKED: REMARK    8  A    between atoms: C_15  and  C_16
DOCKED: REMARK    9  A    between atoms: N_17  and  O_18
DOCKED: REMARK                            x       y       z     vdW  Elec       q    Type
DOCKED: REMARK                         _______ _______ _______ _____ _____    ______ ____
DOCKED: USER                              x       y       z     vdW  Elec       q    Type
DOCKED: USER                           _______ _______ _______ _____ _____    ______ ____
DOCKED: ROOT
DOCKED: ATOM      1  C   UNL     1      27.752 -14.494   0.175 -0.26 -0.00    +0.000 C 
DOCKED: ENDROOT
DOCKED: BRANCH   1   3
DOCKED: ATOM      2  O   UNL     1      27.122 -12.774   1.702 -0.31 -0.00    +0.000 OA
DOCKED: ATOM      3  C   UNL     1      27.722 -13.871   1.538 -0.29 -0.00    +0.000 C 
DOCKED: ATOM      4  N   UNL     1      28.375 -14.520   2.640 -0.28 -0.00    +0.000 N 
DOCKED: ATOM      5  H   UNL     1      28.700 -15.441   2.507 -1.73 -0.00    +0.000 HD
DOCKED: BRANCH   4   6
DOCKED: ATOM      6  C   UNL     1      28.584 -13.910   3.924 -0.38 -0.00    +0.000 A 
DOCKED: ATOM      7  C   UNL     1      27.728 -12.901   4.404 -0.38 -0.00    +0.000 A 
DOCKED: ATOM      8  C   UNL     1      27.966 -12.310   5.649 -0.38 +0.00    +0.000 A 
DOCKED: ATOM      9  C   UNL     1      29.064 -12.707   6.417 -0.34 -0.00    +0.000 A 
DOCKED: ATOM     10  C   UNL     1      29.932 -13.691   5.936 -0.29 -0.00    +0.000 A 
DOCKED: ATOM     11  C   UNL     1      29.698 -14.284   4.692 -0.33 -0.00    +0.000 A 
DOCKED: ENDBRANCH   4   6
DOCKED: ENDBRANCH   1   3
DOCKED: BRANCH   1  12
DOCKED: ATOM     12  C   UNL     1      26.480 -15.313  -0.065 -0.23 -0.00    +0.000 C 
DOCKED: BRANCH  12  13
DOCKED: ATOM     13  C   UNL     1      26.507 -15.975  -1.451 -0.44 -0.00    +0.000 C 
DOCKED: BRANCH  13  14
DOCKED: ATOM     14  C   UNL     1      26.172 -17.473  -1.396 -0.53 -0.00    +0.000 C 
DOCKED: BRANCH  14  15
DOCKED: ATOM     15  C   UNL     1      25.116 -17.806  -0.327 -0.69 -0.00    +0.000 C 
DOCKED: BRANCH  15  16
DOCKED: ATOM     16  C   UNL     1      23.995 -18.696  -0.878 -0.78 -0.00    +0.000 C 
DOCKED: BRANCH  16  17
DOCKED: ATOM     17  C   UNL     1      22.676 -17.980  -0.901 -0.79 -0.00    +0.000 C 
DOCKED: ATOM     18  N   UNL     1      21.458 -18.708  -1.068 -0.78 -0.00    +0.000 N 
DOCKED: ATOM     19  O   UNL     1      22.644 -16.730  -0.742 -0.76 -0.00    +0.000 OA
DOCKED: ATOM     20  H   UNL     1      21.487 -19.684  -1.204 -0.10 -0.00    +0.000 HD
DOCKED: BRANCH  18  21
DOCKED: ATOM     21  O   UNL     1      20.263 -18.071  -1.042 -2.13 -0.00    +0.000 OA
DOCKED: ATOM     22  H   UNL     1      20.404 -17.117  -1.149 -0.39 -0.00    +0.000 HD
DOCKED: ENDBRANCH  18  21
DOCKED: ENDBRANCH  16  17
DOCKED: ENDBRANCH  15  16
DOCKED: ENDBRANCH  14  15
DOCKED: ENDBRANCH  13  14
DOCKED: ENDBRANCH  12  13
DOCKED: ENDBRANCH   1  12
DOCKED: TORSDOF 9
DOCKED: TER
DOCKED: ENDMDL
________________________________________________________________________________


	BEGINNING GENETIC ALGORITHM DOCKING 99 of 100
Run: 99 Seed: 1854934349 1825115321 [ Run 99 of 100 GA/GALS ]
Beginning LAMARCKIAN GENETIC ALGORITHM (LGA), with a maximum of 2500000 energy evaluations.

Final-Value: -13.625


	FINAL GENETIC ALGORITHM DOCKED STATE
	_______________________________________________


Detailed state:  trans 26.164 -17.115 -2.961 quatxyzw -0.245136 0.849192 0.349749 0.310574 center 0.056 -0.347 0.144 ntor 9 -20.3012 -139.6634 158.3960 99.3848 108.8262 -114.8883 50.3029 -2.7584 -46.0090
State:	 26.164 -17.115  -2.961  -0.258  0.893  0.368 143.812    -20.30 -139.66  158.40   99.38  108.83 -114.89   50.30   -2.76  -46.01

DOCKED: MODEL       99
DOCKED: USER    Run = 99
DOCKED: USER    DPF = ligand_dock.biased.dpf
DOCKED: USER  
DOCKED: USER    Estimated Free Energy of Binding    =   -9.80 kcal/mol  [=(1)+(2)+(3)-(4)]
DOCKED: USER    Estimated Inhibition Constant, Ki   =   65.58 nM (nanomolar)  [Temperature = 298.15 K]
DOCKED: USER    
DOCKED: USER    (1) Final Intermolecular Energy     =  -12.48 kcal/mol
DOCKED: USER        vdW + Hbond + desolv Energy     =  -12.48 kcal/mol
DOCKED: USER        Electrostatic Energy            =   +0.00 kcal/mol
DOCKED: USER    (2) Final Total Internal Energy     =   -1.14 kcal/mol
DOCKED: USER    (3) Torsional Free Energy           =   +2.68 kcal/mol
DOCKED: USER    (4) Unbound System's Energy  [=(2)] =   -1.14 kcal/mol
DOCKED: USER    
DOCKED: USER    
DOCKED: USER    NEWDPF move ligand.pdbqt
DOCKED: USER    NEWDPF about 0.056000 -0.347000 0.144000
DOCKED: USER    NEWDPF tran0 26.163893 -17.114519 -2.961024
DOCKED: USER    NEWDPF quaternion0 -0.245136 0.849192 0.349749 0.310574
DOCKED: USER    NEWDPF axisangle0 -0.257889 0.893370 0.367944 143.812363
DOCKED: USER    NEWDPF quat0 -0.257889 0.893370 0.367944 143.812363
DOCKED: USER    NEWDPF dihe0 -20.30 -139.66 158.40 99.38 108.83 -114.89 50.30 -2.76 -46.01 
DOCKED: USER  keepresnum = 1 
DOCKED: USER  
DOCKED: REMARK  Name = 
DOCKED: REMARK  9 active torsions:
DOCKED: REMARK  status: ('A' for Active; 'I' for Inactive)
DOCKED: REMARK    1  A    between atoms: C_2  and  C_10
DOCKED: REMARK    2  A    between atoms: N_3  and  C_4
DOCKED: REMARK    3  A    between atoms: C_10  and  C_11
DOCKED: REMARK    4  A    between atoms: C_11  and  C_12
DOCKED: REMARK    5  A    between atoms: C_12  and  C_13
DOCKED: REMARK    6  A    between atoms: C_13  and  C_14
DOCKED: REMARK    7  A    between atoms: C_14  and  C_15
DOCKED: REMARK    8  A    between atoms: C_15  and  C_16
DOCKED: REMARK    9  A    between atoms: N_17  and  O_18
DOCKED: REMARK                            x       y       z     vdW  Elec       q    Type
DOCKED: REMARK                         _______ _______ _______ _____ _____    ______ ____
DOCKED: USER                              x       y       z     vdW  Elec       q    Type
DOCKED: USER                           _______ _______ _______ _____ _____    ______ ____
DOCKED: ROOT
DOCKED: ATOM      1  C   UNL     1      25.504 -14.897  -1.721 -0.29 -0.00    +0.000 C 
DOCKED: ENDROOT
DOCKED: BRANCH   1   3
DOCKED: ATOM      2  O   UNL     1      25.966 -13.213  -3.344 -0.32 -0.00    +0.000 OA
DOCKED: ATOM      3  C   UNL     1      26.251 -14.360  -2.904 -0.39 -0.00    +0.000 C 
DOCKED: ATOM      4  N   UNL     1      27.276 -15.149  -3.528 -0.31 -0.00    +0.000 N 
DOCKED: ATOM      5  H   UNL     1      27.571 -15.969  -3.068 -0.01 -0.00    +0.000 HD
DOCKED: BRANCH   4   6
DOCKED: ATOM      6  C   UNL     1      27.896 -14.818  -4.781 -0.34 -0.00    +0.000 A 
DOCKED: ATOM      7  C   UNL     1      28.845 -15.670  -5.378 -0.32 -0.00    +0.000 A 
DOCKED: ATOM      8  C   UNL     1      29.447 -15.314  -6.588 -0.29 -0.00    +0.000 A 
DOCKED: ATOM      9  C   UNL     1      29.122 -14.103  -7.205 -0.29 -0.00    +0.000 A 
DOCKED: ATOM     10  C   UNL     1      28.200 -13.240  -6.606 -0.20 -0.00    +0.000 A 
DOCKED: ATOM     11  C   UNL     1      27.596 -13.592  -5.396 -0.26 -0.00    +0.000 A 
DOCKED: ENDBRANCH   4   6
DOCKED: ENDBRANCH   1   3
DOCKED: BRANCH   1  12
DOCKED: ATOM     12  C   UNL     1      25.331 -16.415  -1.845 -0.59 -0.00    +0.000 C 
DOCKED: BRANCH  12  13
DOCKED: ATOM     13  C   UNL     1      25.681 -17.116  -0.524 -0.58 -0.00    +0.000 C 
DOCKED: BRANCH  13  14
DOCKED: ATOM     14  C   UNL     1      25.318 -18.609  -0.534 -0.61 -0.00    +0.000 C 
DOCKED: BRANCH  14  15
DOCKED: ATOM     15  C   UNL     1      23.929 -18.877  -1.141 -0.72 -0.00    +0.000 C 
DOCKED: BRANCH  15  16
DOCKED: ATOM     16  C   UNL     1      22.796 -18.576  -0.151 -0.79 -0.00    +0.000 C 
DOCKED: BRANCH  16  17
DOCKED: ATOM     17  C   UNL     1      21.457 -18.556  -0.829 -0.84 -0.00    +0.000 C 
DOCKED: ATOM     18  N   UNL     1      20.945 -19.732  -1.459 -0.76 -0.00    +0.000 N 
DOCKED: ATOM     19  O   UNL     1      20.768 -17.500  -0.816 -2.08 -0.00    +0.000 OA
DOCKED: ATOM     20  H   UNL     1      21.491 -20.552  -1.478 -0.21 -0.00    +0.000 HD
DOCKED: BRANCH  18  21
DOCKED: ATOM     21  O   UNL     1      19.717 -19.731  -2.030 -1.75 -0.00    +0.000 OA
DOCKED: ATOM     22  H   UNL     1      19.193 -19.001  -1.666 -0.52 -0.00    +0.000 HD
DOCKED: ENDBRANCH  18  21
DOCKED: ENDBRANCH  16  17
DOCKED: ENDBRANCH  15  16
DOCKED: ENDBRANCH  14  15
DOCKED: ENDBRANCH  13  14
DOCKED: ENDBRANCH  12  13
DOCKED: ENDBRANCH   1  12
DOCKED: TORSDOF 9
DOCKED: TER
DOCKED: ENDMDL
________________________________________________________________________________


	BEGINNING GENETIC ALGORITHM DOCKING 100 of 100
Run: 100 Seed: 898956514 1333431510 [ Run 100 of 100 GA/GALS ]
Beginning LAMARCKIAN GENETIC ALGORITHM (LGA), with a maximum of 2500000 energy evaluations.

Final-Value: -13.215


	FINAL GENETIC ALGORITHM DOCKED STATE
	_______________________________________________


Detailed state:  trans 26.419 -16.186 -3.147 quatxyzw -0.252826 -0.702762 -0.664945 -0.007285 center 0.056 -0.347 0.144 ntor 9 -6.5919 -36.5704 -125.0001 -170.6637 77.8930 176.8630 42.7959 3.3675 -69.6248
State:	 26.419 -16.186  -3.147  -0.253 -0.703 -0.665 -179.165     -6.59  -36.57 -125.00 -170.66   77.89  176.86   42.80    3.37  -69.62

DOCKED: MODEL      100
DOCKED: USER    Run = 100
DOCKED: USER    DPF = ligand_dock.biased.dpf
DOCKED: USER  
DOCKED: USER    Estimated Free Energy of Binding    =   -9.22 kcal/mol  [=(1)+(2)+(3)-(4)]
DOCKED: USER    Estimated Inhibition Constant, Ki   =  173.08 nM (nanomolar)  [Temperature = 298.15 K]
DOCKED: USER    
DOCKED: USER    (1) Final Intermolecular Energy     =  -11.91 kcal/mol
DOCKED: USER        vdW + Hbond + desolv Energy     =  -11.91 kcal/mol
DOCKED: USER        Electrostatic Energy            =   +0.00 kcal/mol
DOCKED: USER    (2) Final Total Internal Energy     =   -1.31 kcal/mol
DOCKED: USER    (3) Torsional Free Energy           =   +2.68 kcal/mol
DOCKED: USER    (4) Unbound System's Energy  [=(2)] =   -1.31 kcal/mol
DOCKED: USER    
DOCKED: USER    
DOCKED: USER    NEWDPF move ligand.pdbqt
DOCKED: USER    NEWDPF about 0.056000 -0.347000 0.144000
DOCKED: USER    NEWDPF tran0 26.418899 -16.186195 -3.147448
DOCKED: USER    NEWDPF quaternion0 -0.252826 -0.702762 -0.664945 -0.007285
DOCKED: USER    NEWDPF axisangle0 -0.252832 -0.702780 -0.664963 -179.165246
DOCKED: USER    NEWDPF quat0 -0.252832 -0.702780 -0.664963 -179.165246
DOCKED: USER    NEWDPF dihe0 -6.59 -36.57 -125.00 -170.66 77.89 176.86 42.80 3.37 -69.62 
DOCKED: USER  keepresnum = 1 
DOCKED: USER  
DOCKED: REMARK  Name = 
DOCKED: REMARK  9 active torsions:
DOCKED: REMARK  status: ('A' for Active; 'I' for Inactive)
DOCKED: REMARK    1  A    between atoms: C_2  and  C_10
DOCKED: REMARK    2  A    between atoms: N_3  and  C_4
DOCKED: REMARK    3  A    between atoms: C_10  and  C_11
DOCKED: REMARK    4  A    between atoms: C_11  and  C_12
DOCKED: REMARK    5  A    between atoms: C_12  and  C_13
DOCKED: REMARK    6  A    between atoms: C_13  and  C_14
DOCKED: REMARK    7  A    between atoms: C_14  and  C_15
DOCKED: REMARK    8  A    between atoms: C_15  and  C_16
DOCKED: REMARK    9  A    between atoms: N_17  and  O_18
DOCKED: REMARK                            x       y       z     vdW  Elec       q    Type
DOCKED: REMARK                         _______ _______ _______ _____ _____    ______ ____
DOCKED: USER                              x       y       z     vdW  Elec       q    Type
DOCKED: USER                           _______ _______ _______ _____ _____    ______ ____
DOCKED: ROOT
DOCKED: ATOM      1  C   UNL     1      28.006 -15.695  -1.115 -0.28 -0.00    +0.000 C 
DOCKED: ENDROOT
DOCKED: BRANCH   1   3
DOCKED: ATOM      2  O   UNL     1      29.998 -15.013  -2.234 -0.09 -0.00    +0.000 OA
DOCKED: ATOM      3  C   UNL     1      28.990 -15.770  -2.243 -0.21 -0.00    +0.000 C 
DOCKED: ATOM      4  N   UNL     1      28.779 -16.694  -3.323 -0.24 -0.00    +0.000 N 
DOCKED: ATOM      5  H   UNL     1      28.068 -17.369  -3.221 +0.02 -0.00    +0.000 HD
DOCKED: BRANCH   4   6
DOCKED: ATOM      6  C   UNL     1      29.539 -16.695  -4.541 -0.24 -0.00    +0.000 A 
DOCKED: ATOM      7  C   UNL     1      29.353 -15.703  -5.523 -0.30 -0.00    +0.000 A 
DOCKED: ATOM      8  C   UNL     1      30.093 -15.739  -6.709 -0.30 -0.00    +0.000 A 
DOCKED: ATOM      9  C   UNL     1      31.011 -16.768  -6.933 -0.27 -0.00    +0.000 A 
DOCKED: ATOM     10  C   UNL     1      31.184 -17.770  -5.975 -0.23 -0.00    +0.000 A 
DOCKED: ATOM     11  C   UNL     1      30.446 -17.739  -4.788 -0.26 -0.00    +0.000 A 
DOCKED: ENDBRANCH   4   6
DOCKED: ENDBRANCH   1   3
DOCKED: BRANCH   1  12
DOCKED: ATOM     12  C   UNL     1      26.573 -15.775  -1.652 -0.42 -0.00    +0.000 C 
DOCKED: BRANCH  12  13
DOCKED: ATOM     13  C   UNL     1      25.917 -17.110  -1.269 -0.58 -0.00    +0.000 C 
DOCKED: BRANCH  13  14
DOCKED: ATOM     14  C   UNL     1      24.455 -17.204  -1.732 -0.65 -0.00    +0.000 C 
DOCKED: BRANCH  14  15
DOCKED: ATOM     15  C   UNL     1      23.461 -17.210  -0.557 -0.67 -0.00    +0.000 C 
DOCKED: BRANCH  15  16
DOCKED: ATOM     16  C   UNL     1      22.790 -18.578  -0.373 -0.83 -0.00    +0.000 C 
DOCKED: BRANCH  16  17
DOCKED: ATOM     17  C   UNL     1      21.393 -18.590  -0.923 -0.82 -0.00    +0.000 C 
DOCKED: ATOM     18  N   UNL     1      20.910 -19.723  -1.648 -0.74 -0.00    +0.000 N 
DOCKED: ATOM     19  O   UNL     1      20.634 -17.606  -0.717 -2.17 +0.00    +0.000 OA
DOCKED: ATOM     20  H   UNL     1      21.510 -20.486  -1.817 -0.40 -0.00    +0.000 HD
DOCKED: BRANCH  18  21
DOCKED: ATOM     21  O   UNL     1      19.636 -19.758  -2.105 -1.66 -0.00    +0.000 OA
DOCKED: ATOM     22  H   UNL     1      19.152 -18.987  -1.770 -0.56 -0.00    +0.000 HD
DOCKED: ENDBRANCH  18  21
DOCKED: ENDBRANCH  16  17
DOCKED: ENDBRANCH  15  16
DOCKED: ENDBRANCH  14  15
DOCKED: ENDBRANCH  13  14
DOCKED: ENDBRANCH  12  13
DOCKED: ENDBRANCH   1  12
DOCKED: TORSDOF 9
DOCKED: TER
DOCKED: ENDMDL
________________________________________________________________________________

DPF>                           # do this many hybrid GA-LS runs

DPF> analysis                             # perform a ranked cluster analysis


		CLUSTER ANALYSIS OF CONFORMATIONS
		_________________________________

Number of conformations = 100

RMSD cluster analysis will be performed using the ligand atoms only (22 / 22 total atoms).

Outputting structurally similar clusters, ranked in order of increasing energy.


________________________________________________________________________________

Number of distinct conformational clusters found = 11,  out of 100 runs,
Using an rmsd-tolerance of 2.0 A


	CLUSTERING HISTOGRAM
	____________________

________________________________________________________________________________
     |           |     |           |     |                                    
Clus | Lowest    | Run | Mean      | Num | Histogram                          
-ter | Binding   |     | Binding   | in  |                                    
Rank | Energy    |     | Energy    | Clus|    5    10   15   20   25   30   35
_____|___________|_____|___________|_____|____:____|____:____|____:____|____:___
   1 |    -11.64 |  97 |    -10.07 |  42 |##########################################
   2 |    -10.82 |  75 |     -9.58 |  36 |####################################
   3 |    -10.36 |  91 |     -9.63 |  12 |############
   4 |    -10.12 |  88 |    -10.12 |   1 |#
   5 |     -9.50 |   3 |     -9.50 |   1 |#
   6 |     -9.47 |  52 |     -9.20 |   2 |##
   7 |     -9.00 |  76 |     -9.00 |   1 |#
   8 |     -8.91 |  26 |     -8.90 |   2 |##
   9 |     -8.71 |  62 |     -8.71 |   1 |#
  10 |     -8.40 |  84 |     -8.40 |   1 |#
  11 |     -6.85 |   4 |     -6.85 |   1 |#
_____|___________|_____|___________|_____|______________________________________


Number of multi-member conformational clusters found = 5, out of 100 runs.

	RMSD TABLE
	__________

_____________________________________________________________________
     |      |      |           |         |                 |
Rank | Sub- | Run  | Binding   | Cluster | Reference       | Grep
     | Rank |      | Energy    | RMSD    | RMSD            | Pattern
_____|______|______|___________|_________|_________________|___________
   1      1     97      -11.64      0.00     27.68           RANKING
   1      2     23      -11.39      0.62     27.74           RANKING
   1      3     36      -11.32      0.77     27.65           RANKING
   1      4     81      -11.31      0.52     27.75           RANKING
   1      5     56      -11.20      0.66     27.71           RANKING
   1      6     14      -10.97      0.51     27.56           RANKING
   1      7     67      -10.92      0.55     27.76           RANKING
   1      8     74      -10.89      0.79     27.44           RANKING
   1      9     59      -10.89      0.45     27.72           RANKING
   1     10      8      -10.85      0.73     27.94           RANKING
   1     11     58      -10.80      0.52     27.63           RANKING
   1     12     53      -10.77      0.95     28.18           RANKING
   1     13     60      -10.69      0.92     27.79           RANKING
   1     14     34      -10.42      0.70     27.70           RANKING
   1     15     48      -10.42      1.52     27.48           RANKING
   1     16     95      -10.23      1.01     27.73           RANKING
   1     17     17      -10.11      1.43     27.47           RANKING
   1     18     77      -10.10      1.37     27.49           RANKING
   1     19      2      -10.06      0.86     27.90           RANKING
   1     20     32      -10.04      1.07     27.43           RANKING
   1     21     93      -10.01      1.01     27.76           RANKING
   1     22     51      -10.00      1.20     28.07           RANKING
   1     23     94       -9.99      1.42     27.66           RANKING
   1     24     20       -9.96      1.39     27.39           RANKING
   1     25     98       -9.91      1.20     28.10           RANKING
   1     26     21       -9.76      1.33     27.87           RANKING
   1     27     45       -9.75      1.02     28.15           RANKING
   1     28     69       -9.52      1.22     27.70           RANKING
   1     29     25       -9.52      1.56     26.98           RANKING
   1     30     87       -9.46      1.29     27.98           RANKING
   1     31     70       -9.42      1.33     27.73           RANKING
   1     32     28       -9.35      1.14     27.84           RANKING
   1     33     85       -9.34      1.67     28.38           RANKING
   1     34      9       -9.33      1.78     27.21           RANKING
   1     35     50       -9.33      1.64     27.13           RANKING
   1     36     66       -9.32      1.72     28.76           RANKING
   1     37     43       -9.09      1.21     27.90           RANKING
   1     38     30       -9.08      1.80     27.31           RANKING
   1     39     41       -9.04      1.48     27.49           RANKING
   1     40     79       -9.01      1.38     27.34           RANKING
   1     41     16       -8.97      1.92     27.34           RANKING
   1     42     19       -8.55      1.62     28.36           RANKING
   2      1     75      -10.82      0.00     28.83           RANKING
   2      2     68      -10.79      0.67     29.11           RANKING
   2      3     55      -10.66      0.91     28.99           RANKING
   2      4     57      -10.65      1.39     28.12           RANKING
   2      5     27      -10.43      0.87     28.97           RANKING
   2      6     63      -10.36      0.84     28.78           RANKING
   2      7     82      -10.22      0.89     28.87           RANKING
   2      8     96      -10.04      0.70     28.66           RANKING
   2      9     22       -9.96      1.62     27.97           RANKING
   2     10     89       -9.91      1.29     28.51           RANKING
   2     11     61       -9.82      1.40     28.41           RANKING
   2     12     99       -9.80      1.36     28.12           RANKING
   2     13     31       -9.79      1.91     28.45           RANKING
   2     14     44       -9.78      0.85     29.07           RANKING
   2     15     12       -9.76      1.82     28.01           RANKING
   2     16     33       -9.63      1.27     28.69           RANKING
   2     17     80       -9.56      1.56     28.69           RANKING
   2     18     42       -9.51      1.35     28.62           RANKING
   2     19      6       -9.48      1.11     28.95           RANKING
   2     20      1       -9.42      1.83     29.19           RANKING
   2     21     10       -9.42      1.22     28.87           RANKING
   2     22     64       -9.36      1.48     28.77           RANKING
   2     23     54       -9.35      1.65     28.74           RANKING
   2     24     11       -9.35      1.46     28.55           RANKING
   2     25      7       -9.30      1.04     29.20           RANKING
   2     26    100       -9.22      1.78     29.42           RANKING
   2     27     83       -9.19      1.61     29.19           RANKING
   2     28     72       -9.09      1.53     28.60           RANKING
   2     29     18       -9.04      1.70     28.62           RANKING
   2     30     38       -9.02      1.40     28.94           RANKING
   2     31     24       -9.02      1.73     28.44           RANKING
   2     32     46       -8.95      1.68     28.27           RANKING
   2     33     71       -8.87      1.66     28.89           RANKING
   2     34     13       -8.63      1.63     29.31           RANKING
   2     35      5       -8.61      1.86     28.90           RANKING
   2     36     39       -8.21      1.72     28.93           RANKING
   3      1     91      -10.36      0.00     26.70           RANKING
   3      2     65      -10.21      0.81     26.40           RANKING
   3      3     47      -10.05      0.69     26.83           RANKING
   3      4     49      -10.04      1.46     27.55           RANKING
   3      5     86       -9.98      1.11     26.83           RANKING
   3      6     37       -9.89      1.09     26.91           RANKING
   3      7     73       -9.76      1.06     26.35           RANKING
   3      8     78       -9.29      1.55     27.66           RANKING
   3      9     29       -9.26      1.56     26.56           RANKING
   3     10     90       -9.18      1.43     27.00           RANKING
   3     11     92       -8.87      1.78     27.33           RANKING
   3     12     15       -8.63      1.58     26.83           RANKING
   4      1     88      -10.12      0.00     26.99           RANKING
   5      1      3       -9.50      0.00     27.35           RANKING
   6      1     52       -9.47      0.00     26.73           RANKING
   6      2     35       -8.92      1.26     26.78           RANKING
   7      1     76       -9.00      0.00     29.56           RANKING
   8      1     26       -8.91      0.00     26.87           RANKING
   8      2     40       -8.89      1.25     27.13           RANKING
   9      1     62       -8.71      0.00     27.51           RANKING
  10      1     84       -8.40      0.00     29.79           RANKING
  11      1      4       -6.85      0.00     27.89           RANKING
_______________________________________________________________________



	INFORMATION ENTROPY ANALYSIS FOR THIS CLUSTERING
	________________________________________________


Information entropy for this clustering = 0.31  (rmstol = 2.00 Angstrom)

_______________________________________________________________________


	STATISTICAL MECHANICAL ANALYSIS
	_______________________________


Partition function, Q =   101.65            at Temperature, T = 298.15 K
Free energy,        A ~ -2738.20 kcal/mol   at Temperature, T = 298.15 K
Internal energy,    U =    -9.72 kcal/mol   at Temperature, T = 298.15 K
Entropy,            S =     9.15 kcal/mol/K at Temperature, T = 298.15 K

_______________________________________________________________________


	LOWEST ENERGY DOCKED CONFORMATION from EACH CLUSTER
	___________________________________________________



Keeping original residue number (specified in the input PDBQ file) for outputting.

MODEL       97
USER    Run = 97
USER    Cluster Rank = 1
USER    Number of conformations in this cluster = 42
USER  
USER    RMSD from reference structure       = 27.675 A
USER  
USER    Estimated Free Energy of Binding    =  -11.64 kcal/mol  [=(1)+(2)+(3)-(4)]
USER    Estimated Inhibition Constant, Ki   =    2.94 nM (nanomolar)  [Temperature = 298.15 K]
USER    
USER    (1) Final Intermolecular Energy     =  -14.32 kcal/mol
USER        vdW + Hbond + desolv Energy     =  -14.32 kcal/mol
USER        Electrostatic Energy            =   +0.00 kcal/mol
USER    (2) Final Total Internal Energy     =   -1.25 kcal/mol
USER    (3) Torsional Free Energy           =   +2.68 kcal/mol
USER    (4) Unbound System's Energy  [=(2)] =   -1.25 kcal/mol
USER    
USER    
USER  
USER    DPF = ligand_dock.biased.dpf
USER    NEWDPF move	ligand.pdbqt
USER    NEWDPF about	0.056000 -0.347000 0.144000
USER    NEWDPF tran0	25.418946 -16.316836 0.628233
USER    NEWDPF axisangle0	-0.171009 0.563570 -0.808174 -88.795809
USER    NEWDPF quaternion0	-0.119644 0.394294 -0.565429 -0.714498
USER    NEWDPF dihe0	4.72 -179.96 179.10 33.58 -34.99 -153.60 -173.55 51.20 -60.10 
USER  
USER                              x       y       z    vdW   Elec        q     RMS 
ATOM      1  C   UNL     1      27.672 -15.243  -0.183 -0.30 -0.00    +0.000    27.675
ATOM      2  O   UNL     1      26.440 -13.588   1.014 -0.37 -0.00    +0.000    27.675
ATOM      3  C   UNL     1      27.382 -14.426   1.040 -0.29 -0.00    +0.000    27.675
ATOM      4  N   UNL     1      28.176 -14.598   2.224 -0.25 -0.00    +0.000    27.675
ATOM      5  H   UNL     1      28.799 -15.361   2.257 -1.77 -0.00    +0.000    27.675
ATOM      6  C   UNL     1      28.119 -13.726   3.365 -0.35 -0.00    +0.000    27.675
ATOM      7  C   UNL     1      28.239 -14.225   4.676 -0.51 -0.00    +0.000    27.675
ATOM      8  C   UNL     1      28.160 -13.356   5.769 -0.38 -0.00    +0.000    27.675
ATOM      9  C   UNL     1      27.945 -11.990   5.567 -0.36 +0.00    +0.000    27.675
ATOM     10  C   UNL     1      27.800 -11.491   4.270 -0.30 +0.00    +0.000    27.675
ATOM     11  C   UNL     1      27.878 -12.356   3.174 -0.25 -0.00    +0.000    27.675
ATOM     12  C   UNL     1      26.659 -16.385  -0.313 -0.45 -0.00    +0.000    27.675
ATOM     13  C   UNL     1      25.868 -16.270  -1.625 -0.53 -0.00    +0.000    27.675
ATOM     14  C   UNL     1      24.361 -16.492  -1.428 -0.53 -0.00    +0.000    27.675
ATOM     15  C   UNL     1      23.981 -17.983  -1.400 -0.76 -0.00    +0.000    27.675
ATOM     16  C   UNL     1      22.962 -18.300  -0.298 -0.82 -0.00    +0.000    27.675
ATOM     17  C   UNL     1      21.574 -18.452  -0.850 -0.82 -0.00    +0.000    27.675
ATOM     18  N   UNL     1      21.150 -19.695  -1.414 -0.70 -0.00    +0.000    27.675
ATOM     19  O   UNL     1      20.770 -17.483  -0.789 -2.07 -0.00    +0.000    27.675
ATOM     20  H   UNL     1      21.784 -20.446  -1.471 -0.29 -0.00    +0.000    27.675
ATOM     21  O   UNL     1      19.884 -19.850  -1.870 -1.84 -0.00    +0.000    27.675
ATOM     22  H   UNL     1      19.415 -19.003  -1.812 -0.39 -0.00    +0.000    27.675
TER
ENDMDL
MODEL       75
USER    Run = 75
USER    Cluster Rank = 2
USER    Number of conformations in this cluster = 36
USER  
USER    RMSD from reference structure       = 28.831 A
USER  
USER    Estimated Free Energy of Binding    =  -10.82 kcal/mol  [=(1)+(2)+(3)-(4)]
USER    Estimated Inhibition Constant, Ki   =   11.65 nM (nanomolar)  [Temperature = 298.15 K]
USER    
USER    (1) Final Intermolecular Energy     =  -13.51 kcal/mol
USER        vdW + Hbond + desolv Energy     =  -13.51 kcal/mol
USER        Electrostatic Energy            =   +0.00 kcal/mol
USER    (2) Final Total Internal Energy     =   -1.40 kcal/mol
USER    (3) Torsional Free Energy           =   +2.68 kcal/mol
USER    (4) Unbound System's Energy  [=(2)] =   -1.40 kcal/mol
USER    
USER    
USER  
USER    DPF = ligand_dock.biased.dpf
USER    NEWDPF move	ligand.pdbqt
USER    NEWDPF about	0.056000 -0.347000 0.144000
USER    NEWDPF tran0	26.682054 -15.920321 -2.067433
USER    NEWDPF axisangle0	0.126749 -0.955840 0.265152 -136.541789
USER    NEWDPF quaternion0	0.117742 -0.887922 0.246311 -0.370219
USER    NEWDPF dihe0	13.42 -56.62 -179.79 74.92 19.98 50.06 8.28 34.32 142.73 
USER  
USER                              x       y       z    vdW   Elec        q     RMS 
ATOM      1  C   UNL     1      25.628 -14.199  -3.745 -0.52 -0.00    +0.000    28.831
ATOM      2  O   UNL     1      26.082 -15.720  -5.524 -1.14 +0.00    +0.000    28.831
ATOM      3  C   UNL     1      26.560 -14.952  -4.646 -0.53 -0.00    +0.000    28.831
ATOM      4  N   UNL     1      27.980 -14.798  -4.502 -0.29 -0.00    +0.000    28.831
ATOM      5  H   UNL     1      28.310 -14.082  -3.911 +0.00 -0.00    +0.000    28.831
ATOM      6  C   UNL     1      28.950 -15.626  -5.164 -0.31 -0.00    +0.000    28.831
ATOM      7  C   UNL     1      29.487 -16.769  -4.542 -0.22 -0.00    +0.000    28.831
ATOM      8  C   UNL     1      30.445 -17.545  -5.202 -0.27 -0.00    +0.000    28.831
ATOM      9  C   UNL     1      30.885 -17.183  -6.477 -0.28 -0.00    +0.000    28.831
ATOM     10  C   UNL     1      30.375 -16.036  -7.092 -0.28 -0.00    +0.000    28.831
ATOM     11  C   UNL     1      29.419 -15.257  -6.436 -0.32 -0.00    +0.000    28.831
ATOM     12  C   UNL     1      25.592 -14.844  -2.355 -0.41 -0.00    +0.000    28.831
ATOM     13  C   UNL     1      25.663 -16.375  -2.460 -0.55 -0.00    +0.000    28.831
ATOM     14  C   UNL     1      24.967 -17.080  -1.286 -0.66 -0.00    +0.000    28.831
ATOM     15  C   UNL     1      23.827 -18.007  -1.743 -0.64 -0.00    +0.000    28.831
ATOM     16  C   UNL     1      22.950 -18.468  -0.571 -0.83 -0.00    +0.000    28.831
ATOM     17  C   UNL     1      21.504 -18.566  -0.965 -0.81 -0.00    +0.000    28.831
ATOM     18  N   UNL     1      21.004 -19.745  -1.599 -0.71 -0.00    +0.000    28.831
ATOM     19  O   UNL     1      20.722 -17.612  -0.706 -2.16 +0.00    +0.000    28.831
ATOM     20  H   UNL     1      21.620 -20.484  -1.810 -0.40 -0.00    +0.000    28.831
ATOM     21  O   UNL     1      19.691 -19.856  -1.912 -1.70 -0.00    +0.000    28.831
ATOM     22  H   UNL     1      19.268 -18.986  -1.841 -0.48 -0.00    +0.000    28.831
TER
ENDMDL
MODEL       91
USER    Run = 91
USER    Cluster Rank = 3
USER    Number of conformations in this cluster = 12
USER  
USER    RMSD from reference structure       = 26.700 A
USER  
USER    Estimated Free Energy of Binding    =  -10.36 kcal/mol  [=(1)+(2)+(3)-(4)]
USER    Estimated Inhibition Constant, Ki   =   25.35 nM (nanomolar)  [Temperature = 298.15 K]
USER    
USER    (1) Final Intermolecular Energy     =  -13.05 kcal/mol
USER        vdW + Hbond + desolv Energy     =  -13.05 kcal/mol
USER        Electrostatic Energy            =   +0.00 kcal/mol
USER    (2) Final Total Internal Energy     =   -1.11 kcal/mol
USER    (3) Torsional Free Energy           =   +2.68 kcal/mol
USER    (4) Unbound System's Energy  [=(2)] =   -1.11 kcal/mol
USER    
USER    
USER  
USER    DPF = ligand_dock.biased.dpf
USER    NEWDPF move	ligand.pdbqt
USER    NEWDPF about	0.056000 -0.347000 0.144000
USER    NEWDPF tran0	24.757468 -14.604200 -1.504460
USER    NEWDPF axisangle0	0.801561 -0.075665 0.593106 131.922313
USER    NEWDPF quaternion0	0.732041 -0.069102 0.541666 0.407356
USER    NEWDPF dihe0	27.65 70.71 -51.57 154.93 -173.89 76.39 -174.10 0.83 -39.15 
USER  
USER                              x       y       z    vdW   Elec        q     RMS 
ATOM      1  C   UNL     1      26.021 -15.563  -3.595 -0.56 -0.00    +0.000    26.700
ATOM      2  O   UNL     1      24.379 -14.016  -4.368 -1.03 -0.00    +0.000    26.700
ATOM      3  C   UNL     1      25.595 -14.219  -4.102 -0.53 -0.00    +0.000    26.700
ATOM      4  N   UNL     1      26.568 -13.178  -4.285 -0.30 -0.00    +0.000    26.700
ATOM      5  H   UNL     1      27.474 -13.324  -3.928 +0.00 -0.00    +0.000    26.700
ATOM      6  C   UNL     1      26.301 -11.937  -4.959 -0.25 -0.00    +0.000    26.700
ATOM      7  C   UNL     1      25.038 -11.319  -4.884 -0.36 -0.00    +0.000    26.700
ATOM      8  C   UNL     1      24.800 -10.121  -5.566 -0.35 -0.00    +0.000    26.700
ATOM      9  C   UNL     1      25.809  -9.539  -6.337 -0.16 -0.00    +0.000    26.700
ATOM     10  C   UNL     1      27.057 -10.159  -6.436 -0.11 -0.00    +0.000    26.700
ATOM     11  C   UNL     1      27.300 -11.356  -5.757 -0.15 -0.00    +0.000    26.700
ATOM     12  C   UNL     1      25.684 -15.703  -2.107 -0.51 -0.00    +0.000    26.700
ATOM     13  C   UNL     1      25.172 -17.116  -1.790 -0.64 -0.00    +0.000    26.700
ATOM     14  C   UNL     1      24.944 -17.338  -0.288 -0.53 -0.00    +0.000    26.700
ATOM     15  C   UNL     1      23.775 -18.298  -0.002 -0.71 -0.00    +0.000    26.700
ATOM     16  C   UNL     1      23.090 -18.776  -1.288 -0.79 -0.00    +0.000    26.700
ATOM     17  C   UNL     1      21.594 -18.758  -1.161 -0.75 -0.00    +0.000    26.700
ATOM     18  N   UNL     1      20.796 -19.726  -1.846 -0.74 -0.00    +0.000    26.700
ATOM     19  O   UNL     1      21.042 -17.900  -0.421 -1.96 -0.00    +0.000    26.700
ATOM     20  H   UNL     1      21.229 -20.388  -2.433 -0.52 -0.00    +0.000    26.700
ATOM     21  O   UNL     1      19.450 -19.742  -1.696 -1.53 -0.00    +0.000    26.700
ATOM     22  H   UNL     1      19.139 -18.848  -1.485 -0.56 -0.00    +0.000    26.700
TER
ENDMDL
MODEL       88
USER    Run = 88
USER    Cluster Rank = 4
USER    Number of conformations in this cluster = 1
USER  
USER    RMSD from reference structure       = 26.988 A
USER  
USER    Estimated Free Energy of Binding    =  -10.12 kcal/mol  [=(1)+(2)+(3)-(4)]
USER    Estimated Inhibition Constant, Ki   =   38.39 nM (nanomolar)  [Temperature = 298.15 K]
USER    
USER    (1) Final Intermolecular Energy     =  -12.80 kcal/mol
USER        vdW + Hbond + desolv Energy     =  -12.80 kcal/mol
USER        Electrostatic Energy            =   +0.00 kcal/mol
USER    (2) Final Total Internal Energy     =   -1.36 kcal/mol
USER    (3) Torsional Free Energy           =   +2.68 kcal/mol
USER    (4) Unbound System's Energy  [=(2)] =   -1.36 kcal/mol
USER    
USER    
USER  
USER    DPF = ligand_dock.biased.dpf
USER    NEWDPF move	ligand.pdbqt
USER    NEWDPF about	0.056000 -0.347000 0.144000
USER    NEWDPF tran0	23.197178 -17.420584 1.169836
USER    NEWDPF axisangle0	-0.914827 -0.330900 0.231511 -123.116320
USER    NEWDPF quaternion0	-0.804408 -0.290960 0.203568 -0.476266
USER    NEWDPF dihe0	13.94 113.12 -160.00 40.47 131.84 171.21 -2.11 139.11 37.60 
USER  
USER                              x       y       z    vdW   Elec        q     RMS 
ATOM      1  C   UNL     1      23.042 -18.206  -1.330 -0.74 -0.00    +0.000    26.988
ATOM      2  O   UNL     1      20.713 -17.761  -1.082 -2.16 -0.00    +0.000    26.988
ATOM      3  C   UNL     1      21.669 -18.543  -0.832 -0.84 -0.00    +0.000    26.988
ATOM      4  N   UNL     1      21.454 -19.745  -0.074 -0.61 -0.00    +0.000    26.988
ATOM      5  H   UNL     1      22.187 -20.400  -0.028 -0.52 -0.00    +0.000    26.988
ATOM      6  C   UNL     1      20.234 -20.048   0.621 -0.65 -0.00    +0.000    26.988
ATOM      7  C   UNL     1      19.086 -20.484  -0.067 -0.44 -0.00    +0.000    26.988
ATOM      8  C   UNL     1      17.905 -20.754   0.633 -0.52 -0.00    +0.000    26.988
ATOM      9  C   UNL     1      17.855 -20.578   2.018 -0.58 -0.00    +0.000    26.988
ATOM     10  C   UNL     1      18.982 -20.122   2.706 -0.30 -0.00    +0.000    26.988
ATOM     11  C   UNL     1      20.164 -19.851   2.010 -0.45 -0.00    +0.000    26.988
ATOM     12  C   UNL     1      23.827 -17.446  -0.255 -0.59 -0.00    +0.000    26.988
ATOM     13  C   UNL     1      24.707 -16.357  -0.886 -0.50 -0.00    +0.000    26.988
ATOM     14  C   UNL     1      25.504 -16.869  -2.095 -0.57 -0.00    +0.000    26.988
ATOM     15  C   UNL     1      27.026 -16.787  -1.878 -0.40 -0.00    +0.000    26.988
ATOM     16  C   UNL     1      27.486 -15.367  -1.525 -0.29 -0.00    +0.000    26.988
ATOM     17  C   UNL     1      27.913 -15.262  -0.089 -0.28 -0.00    +0.000    26.988
ATOM     18  N   UNL     1      29.300 -15.205   0.252 -0.17 -0.00    +0.000    26.988
ATOM     19  O   UNL     1      27.039 -15.196   0.817 -0.32 -0.00    +0.000    26.988
ATOM     20  H   UNL     1      29.980 -15.269  -0.457 -0.00 -0.00    +0.000    26.988
ATOM     21  O   UNL     1      29.687 -15.062   1.542 -0.08 -0.00    +0.000    26.988
ATOM     22  H   UNL     1      28.933 -15.235   2.126 -1.77 -0.00    +0.000    26.988
TER
ENDMDL
MODEL        3
USER    Run = 3
USER    Cluster Rank = 5
USER    Number of conformations in this cluster = 1
USER  
USER    RMSD from reference structure       = 27.347 A
USER  
USER    Estimated Free Energy of Binding    =   -9.50 kcal/mol  [=(1)+(2)+(3)-(4)]
USER    Estimated Inhibition Constant, Ki   =  109.38 nM (nanomolar)  [Temperature = 298.15 K]
USER    
USER    (1) Final Intermolecular Energy     =  -12.18 kcal/mol
USER        vdW + Hbond + desolv Energy     =  -12.18 kcal/mol
USER        Electrostatic Energy            =   +0.00 kcal/mol
USER    (2) Final Total Internal Energy     =   -1.55 kcal/mol
USER    (3) Torsional Free Energy           =   +2.68 kcal/mol
USER    (4) Unbound System's Energy  [=(2)] =   -1.55 kcal/mol
USER    
USER    
USER  
USER    DPF = ligand_dock.biased.dpf
USER    NEWDPF move	ligand.pdbqt
USER    NEWDPF about	0.056000 -0.347000 0.144000
USER    NEWDPF tran0	24.897224 -17.122752 -1.587871
USER    NEWDPF axisangle0	0.184835 0.272316 0.944288 116.947245
USER    NEWDPF quaternion0	0.157553 0.232122 0.804911 0.522891
USER    NEWDPF dihe0	0.11 -79.77 139.72 -7.28 -36.27 -39.58 4.54 7.90 -178.17 
USER  
USER                              x       y       z    vdW   Elec        q     RMS 
ATOM      1  C   UNL     1      27.366 -17.182  -0.700 -0.47 -0.00    +0.000    27.347
ATOM      2  O   UNL     1      27.161 -14.841  -0.296 -0.30 -0.00    +0.000    27.347
ATOM      3  C   UNL     1      27.254 -15.759  -1.156 -0.35 -0.00    +0.000    27.347
ATOM      4  N   UNL     1      27.248 -15.451  -2.559 -0.28 -0.00    +0.000    27.347
ATOM      5  H   UNL     1      27.473 -16.172  -3.191 -0.01 -0.00    +0.000    27.347
ATOM      6  C   UNL     1      26.935 -14.156  -3.097 -0.27 -0.00    +0.000    27.347
ATOM      7  C   UNL     1      25.815 -13.958  -3.927 -0.44 -0.00    +0.000    27.347
ATOM      8  C   UNL     1      25.544 -12.691  -4.453 -0.31 -0.00    +0.000    27.347
ATOM      9  C   UNL     1      26.392 -11.618  -4.171 -0.22 -0.00    +0.000    27.347
ATOM     10  C   UNL     1      27.520 -11.811  -3.369 -0.12 -0.00    +0.000    27.347
ATOM     11  C   UNL     1      27.794 -13.076  -2.841 -0.13 -0.00    +0.000    27.347
ATOM     12  C   UNL     1      26.008 -17.884  -0.804 -0.62 -0.00    +0.000    27.347
ATOM     13  C   UNL     1      24.944 -16.937  -1.378 -0.65 -0.00    +0.000    27.347
ATOM     14  C   UNL     1      23.555 -17.588  -1.457 -0.68 -0.00    +0.000    27.347
ATOM     15  C   UNL     1      23.321 -18.621  -0.340 -0.81 -0.00    +0.000    27.347
ATOM     16  C   UNL     1      21.930 -18.484   0.293 -0.68 -0.00    +0.000    27.347
ATOM     17  C   UNL     1      20.837 -18.708  -0.712 -0.84 -0.00    +0.000    27.347
ATOM     18  N   UNL     1      20.920 -19.788  -1.645 -0.67 -0.00    +0.000    27.347
ATOM     19  O   UNL     1      19.827 -17.955  -0.711 -1.81 -0.00    +0.000    27.347
ATOM     20  H   UNL     1      21.716 -20.368  -1.650 -0.37 -0.00    +0.000    27.347
ATOM     21  O   UNL     1      19.915 -20.022  -2.521 -1.68 -0.00    +0.000    27.347
ATOM     22  H   UNL     1      19.212 -19.366  -2.388 -0.48 -0.00    +0.000    27.347
TER
ENDMDL
MODEL       52
USER    Run = 52
USER    Cluster Rank = 6
USER    Number of conformations in this cluster = 2
USER  
USER    RMSD from reference structure       = 26.725 A
USER  
USER    Estimated Free Energy of Binding    =   -9.47 kcal/mol  [=(1)+(2)+(3)-(4)]
USER    Estimated Inhibition Constant, Ki   =  115.05 nM (nanomolar)  [Temperature = 298.15 K]
USER    
USER    (1) Final Intermolecular Energy     =  -12.15 kcal/mol
USER        vdW + Hbond + desolv Energy     =  -12.15 kcal/mol
USER        Electrostatic Energy            =   +0.00 kcal/mol
USER    (2) Final Total Internal Energy     =   -1.32 kcal/mol
USER    (3) Torsional Free Energy           =   +2.68 kcal/mol
USER    (4) Unbound System's Energy  [=(2)] =   -1.32 kcal/mol
USER    
USER    
USER  
USER    DPF = ligand_dock.biased.dpf
USER    NEWDPF move	ligand.pdbqt
USER    NEWDPF about	0.056000 -0.347000 0.144000
USER    NEWDPF tran0	23.254852 -17.224110 0.842385
USER    NEWDPF axisangle0	0.931807 0.249319 -0.263773 138.470752
USER    NEWDPF quaternion0	0.871281 0.233124 -0.246639 0.354530
USER    NEWDPF dihe0	-3.71 -49.00 -128.38 20.53 -153.36 81.81 -31.54 -29.04 29.12 
USER  
USER                              x       y       z    vdW   Elec        q     RMS 
ATOM      1  C   UNL     1      22.990 -18.724  -1.295 -0.79 -0.00    +0.000    26.725
ATOM      2  O   UNL     1      20.861 -17.827  -0.706 -2.22 -0.00    +0.000    26.725
ATOM      3  C   UNL     1      21.623 -18.832  -0.691 -0.86 -0.00    +0.000    26.725
ATOM      4  N   UNL     1      21.193 -20.068  -0.099 -0.56 -0.00    +0.000    26.725
ATOM      5  H   UNL     1      21.752 -20.867  -0.240 -0.16 -0.00    +0.000    26.725
ATOM      6  C   UNL     1      19.998 -20.212   0.685 -0.66 -0.00    +0.000    26.725
ATOM      7  C   UNL     1      19.991 -19.942   2.067 -0.49 -0.00    +0.000    26.725
ATOM      8  C   UNL     1      18.818 -20.109   2.811 -0.08 -0.00    +0.000    26.725
ATOM      9  C   UNL     1      17.651 -20.559   2.189 -0.54 -0.00    +0.000    26.725
ATOM     10  C   UNL     1      17.656 -20.853   0.823 -0.49 -0.00    +0.000    26.725
ATOM     11  C   UNL     1      18.826 -20.688   0.076 -0.33 -0.00    +0.000    26.725
ATOM     12  C   UNL     1      23.837 -17.710  -0.519 -0.75 -0.00    +0.000    26.725
ATOM     13  C   UNL     1      24.882 -17.054  -1.434 -0.66 -0.00    +0.000    26.725
ATOM     14  C   UNL     1      25.135 -15.581  -1.080 -0.31 -0.00    +0.000    26.725
ATOM     15  C   UNL     1      26.548 -15.112  -1.469 -0.37 -0.00    +0.000    26.725
ATOM     16  C   UNL     1      27.199 -16.034  -2.508 -0.36 -0.00    +0.000    26.725
ATOM     17  C   UNL     1      26.876 -15.607  -3.910 -0.43 -0.00    +0.000    26.725
ATOM     18  N   UNL     1      27.896 -15.571  -4.910 -0.40 -0.00    +0.000    26.725
ATOM     19  O   UNL     1      25.690 -15.307  -4.212 -0.74 -0.00    +0.000    26.725
ATOM     20  H   UNL     1      28.825 -15.795  -4.669 -0.01 -0.00    +0.000    26.725
ATOM     21  O   UNL     1      27.599 -15.232  -6.188 -0.92 +0.00    +0.000    26.725
ATOM     22  H   UNL     1      26.642 -15.099  -6.272 -0.03 +0.00    +0.000    26.725
TER
ENDMDL
MODEL       76
USER    Run = 76
USER    Cluster Rank = 7
USER    Number of conformations in this cluster = 1
USER  
USER    RMSD from reference structure       = 29.558 A
USER  
USER    Estimated Free Energy of Binding    =   -9.00 kcal/mol  [=(1)+(2)+(3)-(4)]
USER    Estimated Inhibition Constant, Ki   =  252.29 nM (nanomolar)  [Temperature = 298.15 K]
USER    
USER    (1) Final Intermolecular Energy     =  -11.69 kcal/mol
USER        vdW + Hbond + desolv Energy     =  -11.69 kcal/mol
USER        Electrostatic Energy            =   +0.00 kcal/mol
USER    (2) Final Total Internal Energy     =   -1.23 kcal/mol
USER    (3) Torsional Free Energy           =   +2.68 kcal/mol
USER    (4) Unbound System's Energy  [=(2)] =   -1.23 kcal/mol
USER    
USER    
USER  
USER    DPF = ligand_dock.biased.dpf
USER    NEWDPF move	ligand.pdbqt
USER    NEWDPF about	0.056000 -0.347000 0.144000
USER    NEWDPF tran0	27.866577 -17.454330 -1.742486
USER    NEWDPF axisangle0	0.200922 -0.845821 -0.494184 159.444551
USER    NEWDPF quaternion0	0.197698 -0.832249 -0.486255 0.178420
USER    NEWDPF dihe0	0.29 143.28 -176.40 175.05 99.98 157.11 -55.55 -47.05 -36.17 
USER  
USER                              x       y       z    vdW   Elec        q     RMS 
ATOM      1  C   UNL     1      27.143 -15.615  -0.016 -0.35 -0.00    +0.000    29.558
ATOM      2  O   UNL     1      29.195 -15.348  -1.202 -0.15 -0.00    +0.000    29.558
ATOM      3  C   UNL     1      28.624 -15.391  -0.079 -0.23 -0.00    +0.000    29.558
ATOM      4  N   UNL     1      29.379 -15.231   1.133 -0.01 -0.00    +0.000    29.558
ATOM      5  H   UNL     1      28.882 -15.120   1.976 -1.54 -0.00    +0.000    29.558
ATOM      6  C   UNL     1      30.815 -15.225   1.190 -0.10 -0.00    +0.000    29.558
ATOM      7  C   UNL     1      31.535 -14.034   1.405 -0.06 -0.00    +0.000    29.558
ATOM      8  C   UNL     1      32.933 -14.053   1.437 -0.03 -0.00    +0.000    29.558
ATOM      9  C   UNL     1      33.623 -15.252   1.240 -0.03 -0.00    +0.000    29.558
ATOM     10  C   UNL     1      32.917 -16.433   1.002 -0.07 -0.00    +0.000    29.558
ATOM     11  C   UNL     1      31.520 -16.419   0.969 -0.12 -0.00    +0.000    29.558
ATOM     12  C   UNL     1      26.717 -16.657  -1.056 -0.48 -0.00    +0.000    29.558
ATOM     13  C   UNL     1      25.586 -17.543  -0.513 -0.65 -0.00    +0.000    29.558
ATOM     14  C   UNL     1      24.371 -17.589  -1.451 -0.72 -0.00    +0.000    29.558
ATOM     15  C   UNL     1      23.042 -17.354  -0.711 -0.75 -0.00    +0.000    29.558
ATOM     16  C   UNL     1      22.449 -18.656  -0.157 -0.79 -0.00    +0.000    29.558
ATOM     17  C   UNL     1      21.128 -18.980  -0.792 -0.88 -0.00    +0.000    29.558
ATOM     18  N   UNL     1      21.073 -19.734  -2.005 -0.50 -0.00    +0.000    29.558
ATOM     19  O   UNL     1      20.061 -18.607  -0.235 -1.52 -0.00    +0.000    29.558
ATOM     20  H   UNL     1      21.909 -20.014  -2.444 -0.58 -0.00    +0.000    29.558
ATOM     21  O   UNL     1      19.882 -20.069  -2.556 -1.67 -0.00    +0.000    29.558
ATOM     22  H   UNL     1      19.163 -19.717  -2.009 -0.44 -0.00    +0.000    29.558
TER
ENDMDL
MODEL       26
USER    Run = 26
USER    Cluster Rank = 8
USER    Number of conformations in this cluster = 2
USER  
USER    RMSD from reference structure       = 26.869 A
USER  
USER    Estimated Free Energy of Binding    =   -8.91 kcal/mol  [=(1)+(2)+(3)-(4)]
USER    Estimated Inhibition Constant, Ki   =  295.68 nM (nanomolar)  [Temperature = 298.15 K]
USER    
USER    (1) Final Intermolecular Energy     =  -11.59 kcal/mol
USER        vdW + Hbond + desolv Energy     =  -11.59 kcal/mol
USER        Electrostatic Energy            =   +0.00 kcal/mol
USER    (2) Final Total Internal Energy     =   -1.47 kcal/mol
USER    (3) Torsional Free Energy           =   +2.68 kcal/mol
USER    (4) Unbound System's Energy  [=(2)] =   -1.47 kcal/mol
USER    
USER    
USER  
USER    DPF = ligand_dock.biased.dpf
USER    NEWDPF move	ligand.pdbqt
USER    NEWDPF about	0.056000 -0.347000 0.144000
USER    NEWDPF tran0	26.239259 -15.398923 -3.238027
USER    NEWDPF axisangle0	-0.334683 0.315566 0.887922 145.670082
USER    NEWDPF quaternion0	-0.319775 0.301510 0.848373 0.295124
USER    NEWDPF dihe0	-2.33 -96.88 155.18 30.85 61.87 172.82 -175.20 -179.53 75.63 
USER  
USER                              x       y       z    vdW   Elec        q     RMS 
ATOM      1  C   UNL     1      26.780 -16.393  -0.870 -0.46 -0.00    +0.000    26.869
ATOM      2  O   UNL     1      28.130 -14.449  -1.160 -0.16 -0.00    +0.000    26.869
ATOM      3  C   UNL     1      27.085 -14.941  -0.654 -0.31 -0.00    +0.000    26.869
ATOM      4  N   UNL     1      26.195 -14.127   0.125 -0.31 -0.00    +0.000    26.869
ATOM      5  H   UNL     1      25.320 -14.506   0.375 -0.01 -0.00    +0.000    26.869
ATOM      6  C   UNL     1      26.501 -12.793   0.563 -0.27 -0.00    +0.000    26.869
ATOM      7  C   UNL     1      26.262 -12.384   1.889 -0.28 +0.00    +0.000    26.869
ATOM      8  C   UNL     1      26.551 -11.074   2.284 -0.31 +0.00    +0.000    26.869
ATOM      9  C   UNL     1      27.064 -10.159   1.361 -0.22 +0.00    +0.000    26.869
ATOM     10  C   UNL     1      27.281 -10.550   0.037 -0.14 +0.00    +0.000    26.869
ATOM     11  C   UNL     1      26.993 -11.858  -0.362 -0.13 -0.00    +0.000    26.869
ATOM     12  C   UNL     1      26.167 -16.608  -2.258 -0.46 -0.00    +0.000    26.869
ATOM     13  C   UNL     1      24.655 -16.854  -2.158 -0.50 -0.00    +0.000    26.869
ATOM     14  C   UNL     1      24.168 -16.958  -0.705 -0.63 -0.00    +0.000    26.869
ATOM     15  C   UNL     1      23.596 -18.347  -0.369 -0.80 -0.00    +0.000    26.869
ATOM     16  C   UNL     1      22.177 -18.265   0.208 -0.72 -0.00    +0.000    26.869
ATOM     17  C   UNL     1      21.135 -18.551  -0.834 -0.82 -0.00    +0.000    26.869
ATOM     18  N   UNL     1      21.124 -19.804  -1.522 -0.55 -0.00    +0.000    26.869
ATOM     19  O   UNL     1      20.248 -17.691  -1.081 -2.09 -0.00    +0.000    26.869
ATOM     20  H   UNL     1      21.825 -20.470  -1.335 -0.24 -0.00    +0.000    26.869
ATOM     21  O   UNL     1      20.158 -20.085  -2.428 -1.73 -0.00    +0.000    26.869
ATOM     22  H   UNL     1      19.529 -19.348  -2.469 -0.45 -0.00    +0.000    26.869
TER
ENDMDL
MODEL       62
USER    Run = 62
USER    Cluster Rank = 9
USER    Number of conformations in this cluster = 1
USER  
USER    RMSD from reference structure       = 27.515 A
USER  
USER    Estimated Free Energy of Binding    =   -8.71 kcal/mol  [=(1)+(2)+(3)-(4)]
USER    Estimated Inhibition Constant, Ki   =  410.53 nM (nanomolar)  [Temperature = 298.15 K]
USER    
USER    (1) Final Intermolecular Energy     =  -11.40 kcal/mol
USER        vdW + Hbond + desolv Energy     =  -11.40 kcal/mol
USER        Electrostatic Energy            =   +0.00 kcal/mol
USER    (2) Final Total Internal Energy     =   -1.17 kcal/mol
USER    (3) Torsional Free Energy           =   +2.68 kcal/mol
USER    (4) Unbound System's Energy  [=(2)] =   -1.17 kcal/mol
USER    
USER    
USER  
USER    DPF = ligand_dock.biased.dpf
USER    NEWDPF move	ligand.pdbqt
USER    NEWDPF about	0.056000 -0.347000 0.144000
USER    NEWDPF tran0	24.120722 -19.387752 -2.513981
USER    NEWDPF axisangle0	0.114615 -0.885107 -0.451054 -173.928517
USER    NEWDPF quaternion0	0.114455 -0.883864 -0.450421 -0.052959
USER    NEWDPF dihe0	4.40 -172.16 157.19 -132.78 -35.50 32.29 -176.65 -82.58 -28.08 
USER  
USER                              x       y       z    vdW   Elec        q     RMS 
ATOM      1  C   UNL     1      24.087 -17.277  -0.954 -0.72 -0.00    +0.000    27.515
ATOM      2  O   UNL     1      26.374 -17.739  -1.448 -0.55 -0.00    +0.000    27.515
ATOM      3  C   UNL     1      25.353 -17.052  -1.724 -0.62 -0.00    +0.000    27.515
ATOM      4  N   UNL     1      25.398 -16.059  -2.761 -0.52 -0.00    +0.000    27.515
ATOM      5  H   UNL     1      24.548 -15.651  -3.047 -0.03 -0.00    +0.000    27.515
ATOM      6  C   UNL     1      26.605 -15.622  -3.405 -0.41 -0.00    +0.000    27.515
ATOM      7  C   UNL     1      26.601 -15.156  -4.733 -0.49 -0.00    +0.000    27.515
ATOM      8  C   UNL     1      27.794 -14.755  -5.343 -0.38 -0.00    +0.000    27.515
ATOM      9  C   UNL     1      29.000 -14.831  -4.642 -0.21 -0.00    +0.000    27.515
ATOM     10  C   UNL     1      29.017 -15.316  -3.332 -0.17 -0.00    +0.000    27.515
ATOM     11  C   UNL     1      27.827 -15.718  -2.719 -0.26 -0.00    +0.000    27.515
ATOM     12  C   UNL     1      23.337 -18.493  -1.507 -0.75 -0.00    +0.000    27.515
ATOM     13  C   UNL     1      22.496 -19.165  -0.411 -0.74 -0.00    +0.000    27.515
ATOM     14  C   UNL     1      21.063 -18.615  -0.346 -0.73 -0.00    +0.000    27.515
ATOM     15  C   UNL     1      20.034 -19.568  -0.979 -0.88 -0.00    +0.000    27.515
ATOM     16  C   UNL     1      18.761 -19.691  -0.132 -0.68 -0.00    +0.000    27.515
ATOM     17  C   UNL     1      19.040 -20.316   1.204 -0.76 -0.00    +0.000    27.515
ATOM     18  N   UNL     1      19.932 -19.686   2.127 -0.68 -0.00    +0.000    27.515
ATOM     19  O   UNL     1      18.462 -21.389   1.523 -0.70 -0.00    +0.000    27.515
ATOM     20  H   UNL     1      20.391 -18.853   1.870 -0.38 -0.00    +0.000    27.515
ATOM     21  O   UNL     1      20.150 -20.222   3.351 -0.65 -0.00    +0.000    27.515
ATOM     22  H   UNL     1      19.682 -21.068   3.420 -0.13 -0.00    +0.000    27.515
TER
ENDMDL
MODEL       84
USER    Run = 84
USER    Cluster Rank = 10
USER    Number of conformations in this cluster = 1
USER  
USER    RMSD from reference structure       = 29.790 A
USER  
USER    Estimated Free Energy of Binding    =   -8.40 kcal/mol  [=(1)+(2)+(3)-(4)]
USER    Estimated Inhibition Constant, Ki   =  693.03 nM (nanomolar)  [Temperature = 298.15 K]
USER    
USER    (1) Final Intermolecular Energy     =  -11.09 kcal/mol
USER        vdW + Hbond + desolv Energy     =  -11.09 kcal/mol
USER        Electrostatic Energy            =   +0.00 kcal/mol
USER    (2) Final Total Internal Energy     =   -1.19 kcal/mol
USER    (3) Torsional Free Energy           =   +2.68 kcal/mol
USER    (4) Unbound System's Energy  [=(2)] =   -1.19 kcal/mol
USER    
USER    
USER  
USER    DPF = ligand_dock.biased.dpf
USER    NEWDPF move	ligand.pdbqt
USER    NEWDPF about	0.056000 -0.347000 0.144000
USER    NEWDPF tran0	25.742507 -17.666101 -2.844133
USER    NEWDPF axisangle0	0.140860 0.744660 0.652410 -169.473220
USER    NEWDPF quaternion0	0.140266 0.741521 0.649659 -0.091734
USER    NEWDPF dihe0	-7.05 86.11 -12.21 97.31 -145.77 61.27 -64.25 -64.89 -38.79 
USER  
USER                              x       y       z    vdW   Elec        q     RMS 
ATOM      1  C   UNL     1      26.679 -16.849  -0.533 -0.51 -0.00    +0.000    29.790
ATOM      2  O   UNL     1      27.943 -16.672  -2.547 -0.35 -0.00    +0.000    29.790
ATOM      3  C   UNL     1      27.943 -16.989  -1.327 -0.38 -0.00    +0.000    29.790
ATOM      4  N   UNL     1      29.136 -17.485  -0.700 -0.28 -0.00    +0.000    29.790
ATOM      5  H   UNL     1      29.137 -17.579   0.281 -0.53 -0.00    +0.000    29.790
ATOM      6  C   UNL     1      30.326 -17.853  -1.414 -0.20 -0.00    +0.000    29.790
ATOM      7  C   UNL     1      30.899 -16.999  -2.376 -0.12 -0.00    +0.000    29.790
ATOM      8  C   UNL     1      32.047 -17.391  -3.071 -0.07 -0.00    +0.000    29.790
ATOM      9  C   UNL     1      32.625 -18.640  -2.826 -0.06 -0.00    +0.000    29.790
ATOM     10  C   UNL     1      32.049 -19.504  -1.891 -0.11 -0.00    +0.000    29.790
ATOM     11  C   UNL     1      30.901 -19.116  -1.194 -0.16 -0.00    +0.000    29.790
ATOM     12  C   UNL     1      25.458 -17.079  -1.429 -0.62 -0.00    +0.000    29.790
ATOM     13  C   UNL     1      24.373 -17.871  -0.685 -0.76 -0.00    +0.000    29.790
ATOM     14  C   UNL     1      23.149 -17.012  -0.336 -0.50 -0.00    +0.000    29.790
ATOM     15  C   UNL     1      21.820 -17.694  -0.710 -0.77 -0.00    +0.000    29.790
ATOM     16  C   UNL     1      21.936 -19.224  -0.717 -0.81 -0.00    +0.000    29.790
ATOM     17  C   UNL     1      20.587 -19.883  -0.741 -0.79 -0.00    +0.000    29.790
ATOM     18  N   UNL     1      20.086 -20.551   0.419 -0.70 -0.00    +0.000    29.790
ATOM     19  O   UNL     1      19.882 -19.820  -1.784 -1.83 -0.00    +0.000    29.790
ATOM     20  H   UNL     1      20.644 -20.608   1.228 -0.50 -0.00    +0.000    29.790
ATOM     21  O   UNL     1      18.850 -21.105   0.415 -0.76 -0.00    +0.000    29.790
ATOM     22  H   UNL     1      18.393 -20.868  -0.406 -0.26 -0.00    +0.000    29.790
TER
ENDMDL
MODEL        4
USER    Run = 4
USER    Cluster Rank = 11
USER    Number of conformations in this cluster = 1
USER  
USER    RMSD from reference structure       = 27.886 A
USER  
USER    Estimated Free Energy of Binding    =   -6.85 kcal/mol  [=(1)+(2)+(3)-(4)]
USER    Estimated Inhibition Constant, Ki   =    9.56 uM (micromolar)  [Temperature = 298.15 K]
USER    
USER    (1) Final Intermolecular Energy     =   -9.53 kcal/mol
USER        vdW + Hbond + desolv Energy     =   -9.53 kcal/mol
USER        Electrostatic Energy            =   +0.00 kcal/mol
USER    (2) Final Total Internal Energy     =   -2.19 kcal/mol
USER    (3) Torsional Free Energy           =   +2.68 kcal/mol
USER    (4) Unbound System's Energy  [=(2)] =   -2.19 kcal/mol
USER    
USER    
USER  
USER    DPF = ligand_dock.biased.dpf
USER    NEWDPF move	ligand.pdbqt
USER    NEWDPF about	0.056000 -0.347000 0.144000
USER    NEWDPF tran0	28.209091 -16.354948 -2.551547
USER    NEWDPF axisangle0	0.969300 -0.133344 -0.206584 -71.911911
USER    NEWDPF quaternion0	0.569137 -0.078294 -0.121299 -0.809469
USER    NEWDPF dihe0	81.21 10.53 -171.29 -154.40 -102.01 57.13 179.76 -1.57 -133.73 
USER  
USER                              x       y       z    vdW   Elec        q     RMS 
ATOM      1  C   UNL     1      27.788 -16.084   0.025 -0.33 -0.00    +0.000    27.886
ATOM      2  O   UNL     1      25.785 -15.323  -1.022 -0.44 -0.00    +0.000    27.886
ATOM      3  C   UNL     1      26.391 -16.287  -0.480 -0.45 -0.00    +0.000    27.886
ATOM      4  N   UNL     1      25.754 -17.567  -0.340 -0.59 -0.00    +0.000    27.886
ATOM      5  H   UNL     1      26.307 -18.329  -0.051 -0.06 -0.00    +0.000    27.886
ATOM      6  C   UNL     1      24.360 -17.803  -0.595 -0.66 -0.00    +0.000    27.886
ATOM      7  C   UNL     1      23.407 -16.774  -0.471 -0.29 -0.00    +0.000    27.886
ATOM      8  C   UNL     1      22.054 -17.037  -0.706 -0.55 -0.00    +0.000    27.886
ATOM      9  C   UNL     1      21.638 -18.325  -1.051 -0.65 -0.00    +0.000    27.886
ATOM     10  C   UNL     1      22.574 -19.358  -1.151 -0.60 -0.00    +0.000    27.886
ATOM     11  C   UNL     1      23.928 -19.100  -0.917 -0.55 -0.00    +0.000    27.886
ATOM     12  C   UNL     1      28.798 -16.277  -1.111 -0.27 -0.00    +0.000    27.886
ATOM     13  C   UNL     1      28.349 -15.532  -2.377 -0.24 -0.00    +0.000    27.886
ATOM     14  C   UNL     1      29.419 -15.541  -3.479 -0.19 -0.00    +0.000    27.886
ATOM     15  C   UNL     1      28.872 -16.032  -4.831 -0.32 -0.00    +0.000    27.886
ATOM     16  C   UNL     1      27.911 -15.021  -5.469 -0.42 -0.00    +0.000    27.886
ATOM     17  C   UNL     1      26.506 -15.199  -4.970 -0.51 -0.00    +0.000    27.886
ATOM     18  N   UNL     1      26.034 -14.447  -3.850 -0.45 -0.00    +0.000    27.886
ATOM     19  O   UNL     1      25.731 -15.995  -5.564 -1.07 +0.00    +0.000    27.886
ATOM     20  H   UNL     1      26.645 -13.834  -3.381 -0.00 -0.00    +0.000    27.886
ATOM     21  O   UNL     1      24.753 -14.570  -3.427 -0.84 -0.00    +0.000    27.886
ATOM     22  H   UNL     1      24.671 -15.362  -2.874 -0.04 -0.00    +0.000    27.886
TER
ENDMDL


AVSFLD: # AVS field file
AVSFLD: #
AVSFLD: # Created by AutoDock
AVSFLD: #
AVSFLD: ndim=2           # number of dimensions in the field
AVSFLD: nspace=1         # number of physical coordinates
AVSFLD: veclen=7         # vector size
AVSFLD: dim1=22          # atoms
AVSFLD: dim2=11          # conformations
AVSFLD: data=Real       # data type (byte,integer,Real,double)
AVSFLD: field=uniform    # field coordinate layout
AVSFLD: label= x y z vdW Elec q RMS
AVSFLD: variable 1 file = ligand_dock.biased.dlg.pdb filetype = ascii offset = 5 stride = 12
AVSFLD: variable 2 file = ligand_dock.biased.dlg.pdb filetype = ascii offset = 6 stride = 12
AVSFLD: variable 3 file = ligand_dock.biased.dlg.pdb filetype = ascii offset = 7 stride = 12
AVSFLD: variable 4 file = ligand_dock.biased.dlg.pdb filetype = ascii offset = 8 stride = 12
AVSFLD: variable 5 file = ligand_dock.biased.dlg.pdb filetype = ascii offset = 9 stride = 12
AVSFLD: variable 6 file = ligand_dock.biased.dlg.pdb filetype = ascii offset = 10 stride = 12
AVSFLD: variable 7 file = ligand_dock.biased.dlg.pdb filetype = ascii offset = 11 stride = 12
AVSFLD: # end of file

>>> Closing the docking parameter file (DPF)...
This docking finished at:			10:14 32" a.m., 11/08/2024


________________________________________________________________________________

autodock4: Successful Completion on "ThinkStation-P620"

Real= 11m 16.07s,  CPU= 11m 15.80s,  System= 0.17s
________________________________________________________________________________

