REMARK  Name = 
REMARK  11 active torsions:
REMARK  status: ('A' for Active; 'I' for Inactive)
REMARK    1  A    between atoms: C_2  and  O_3
REMARK    2  A    between atoms: O_3  and  C_4
REMARK    3  A    between atoms: C_4  and  C_5
REMARK    4  A    between atoms: C_10  and  C_11
REMARK    5  A    between atoms: C_11  and  N_12
REMARK    6  A    between atoms: N_12  and  C_13
REMARK    7  A    between atoms: N_12  and  C_15
REMARK    8  A    between atoms: C_13  and  C_14
REMARK    9  A    between atoms: C_15  and  C_16
REMARK   10  A    between atoms: N_21  and  C_22
REMARK   11  A    between atoms: C_25  and  C_26
REMARK                            x       y       z     vdW  Elec       q    Type
REMARK                         _______ _______ _______ _____ _____    ______ ____
ROOT
ATOM      1  C   UNL     1      -1.419  -2.024  -0.551  0.00  0.00     0.000 C 
ENDROOT
BRANCH   1   2
ATOM      2  C   UNL     1      -2.848  -1.814  -0.960  0.00  0.00     0.000 A 
ATOM      3  C   UNL     1      -3.229  -1.916  -2.306  0.00  0.00     0.000 A 
ATOM      4  C   UNL     1      -4.558  -1.702  -2.685  0.00  0.00     0.000 A 
ATOM      5  C   UNL     1      -5.521  -1.368  -1.722  0.00  0.00     0.000 A 
ATOM      6  C   UNL     1      -6.855  -1.142  -2.094  0.00  0.00     0.000 A 
ATOM      7  C   UNL     1      -7.809  -0.774  -1.132  0.00  0.00     0.000 A 
ATOM      8  C   UNL     1      -7.428  -0.675   0.216  0.00  0.00     0.000 A 
ATOM      9  C   UNL     1      -6.102  -0.906   0.597  0.00  0.00     0.000 A 
ATOM     10  C   UNL     1      -5.141  -1.248  -0.364  0.00  0.00     0.000 A 
ATOM     11  C   UNL     1      -3.807  -1.474   0.008  0.00  0.00     0.000 A 
ATOM     35  CM  UNL     1      -4.184  -1.587  -1.338  1.00  0.00     0.000 AC
ATOM     36  CM  UNL     1      -6.476  -1.019  -0.750  1.00  0.00     0.000 AC
BRANCH   7  12
ATOM     12  C   UNL     1      -9.243  -0.543  -1.537  0.00  0.00     0.000 C 
BRANCH  12  13
ATOM     13  N   UNL     1      -9.426  -0.770  -2.987  0.00  0.00     0.000 N 
ATOM     14  H   UNL     1      -8.585  -0.345  -3.379  0.00  0.00     0.000 HD
BRANCH  13  15
ATOM     15  C   UNL     1      -9.349  -2.189  -3.396  0.00  0.00     0.000 C 
ATOM     16  C   UNL     1     -10.701  -2.794  -3.781  0.00  0.00     0.000 C 
ENDBRANCH  13  15
BRANCH  13  17
ATOM     17  C   UNL     1     -10.485   0.023  -3.662  0.00  0.00     0.000 C 
ATOM     18  C   UNL     1     -11.529  -0.807  -4.422  0.00  0.00     0.000 C 
ENDBRANCH  13  17
ENDBRANCH  12  13
ENDBRANCH   7  12
ENDBRANCH   1   2
BRANCH   1  19
ATOM     19  O   UNL     1      -1.351  -2.164   0.864  0.00  0.00     0.000 OA
BRANCH  19  21
ATOM     20  O   UNL     1      -0.682   0.013   1.233  0.00  0.00     0.000 OA
ATOM     21  C   UNL     1      -1.072  -0.985   1.561  0.00  0.00     0.000 C 
ATOM     22  N   UNL     1      -1.046  -1.014   2.995  0.00  0.00     0.000 N 
ATOM     23  H   UNL     1      -1.140  -1.888   3.439  0.00  0.00     0.000 HD
BRANCH  22  24
ATOM     24  C   UNL     1      -0.891   0.148   3.827  0.00  0.00     0.000 A 
ATOM     25  C   UNL     1      -0.264   0.023   5.075  0.00  0.00     0.000 A 
ATOM     26  C   UNL     1      -0.124   1.130   5.915  0.00  0.00     0.000 A 
ATOM     27  C   UNL     1      -0.631   2.386   5.531  0.00  0.00     0.000 A 
ATOM     28  C   UNL     1      -1.266   2.507   4.282  0.00  0.00     0.000 A 
ATOM     29  C   UNL     1      -1.404   1.398   3.443  0.00  0.00     0.000 A 
ATOM     37  CM  UNL     1      -0.763   1.265   4.679  1.00  0.00     0.000 AC
BRANCH  27  30
ATOM     30  C   UNL     1      -0.495   3.574   6.411  0.00  0.00     0.000 C 
ATOM     31  N   UNL     1      -1.219   3.679   7.642  0.00  0.00     0.000 N 
ATOM     32  O   UNL     1      -0.998   4.723   8.473  0.00  0.00     0.000 OA
ATOM     33  O   UNL     1       0.264   4.520   6.064  0.00  0.00     0.000 OA
ATOM     34  H   UNL     1      -1.879   2.990   7.883  0.00  0.00     0.000 HD
ENDBRANCH  27  30
ENDBRANCH  22  24
ENDBRANCH  19  21
ENDBRANCH   1  19
TORSDOF 9