          AutoDock 4.2 Release 4.2.6   
         (C) 1989-2012 The Scripps Research Institute
        AutoDock comes with ABSOLUTELY NO WARRANTY.
        AutoDock is free software, and you are welcome
        to redistribute it under certain conditions;
        for details type 'autodock4 -C'

                     main.cc  $Revision: 1.213 $

                   Compiled on Feb 20 2022 at 09:48:33


This file was created at:			5:06 21" p.m., 11/03/2024
                   on host:		"ThinkStation-P620"
Current Working Directory = "/home/antonio/Documenti/buccheri/IDROSSAMICO HDAC/HDAC 4/DP/Ligand_3"

      ________________________________________________________________

                   SETTING UP DEFAULT PARAMETER LIBRARY
      ________________________________________________________________


Random number generator was seeded with values 24271, 1730649981.
Docking parameter file (DPF) used for this docking:		ligand_dock.biased.dpf
DPF> autodock_parameter_version 4.2       # used by autodock to validate parameter set

	Autodock parameter version 4.2.
DPF> outlev 1                             # diagnostic output level

Output Level = 1  ADT-COMPATIBLE OUTPUT DURING DOCKING.
DPF> intelec                              # calculate internal electrostatics

Electrostatic energies will be calculated for all non-bonds between moving atoms.
DPF> seed pid time                        # seeds for random generator

Random number generator was seeded with values 24271, 1730649981.
DPF> ligand_types A C OA HD N             # atoms types in ligand

DPF> fld receptor.maps.fld                # grid_data_file

Opening Grid Map Dimensions file:		receptor.maps.fld
Grid Point Spacing =				0.375 Angstroms

Even Number of User-specified Grid Points =	70 x-points
						70 y-points
						70 z-points

Coordinates of Central Grid Point of Maps =	(19.141, -8.645, -3.505)
Macromolecule file used to create Grid Maps =	receptor.pdbqt
Grid Parameter file used to create Grid Maps =	receptor.gpf
Minimum coordinates in grid = (6.016, -21.770, -16.630)
Maximum coordinates in grid = (32.266, 4.480, 9.620)

DPF> map receptor.A.map                   # atom-specific affinity map

DPF> map receptor.C.map                   # atom-specific affinity map

DPF> map receptor.OA.biased.map

DPF> map receptor.HD.map                  # atom-specific affinity map

DPF> map receptor.N.map                   # atom-specific affinity map

DPF> elecmap receptor.e.map               # electrostatics map

DPF> desolvmap receptor.d.map             # desolvation map

DPF> move ligand.pdbqt                    # small molecule

1,4-interactions will be _ignored_ in the non-bonded internal energy calculation.

Ligand PDBQT file = "ligand.pdbqt"

INPUT LIGAND PDBQT FILE:
________________________

INPUT-LIGAND-PDBQT: REMARK  Name = 
INPUT-LIGAND-PDBQT: REMARK  11 active torsions:
INPUT-LIGAND-PDBQT: REMARK  status: ('A' for Active; 'I' for Inactive)
INPUT-LIGAND-PDBQT: REMARK    1  A    between atoms: C_2  and  O_3
INPUT-LIGAND-PDBQT: REMARK    2  A    between atoms: O_3  and  C_4
INPUT-LIGAND-PDBQT: REMARK    3  A    between atoms: C_4  and  C_5
INPUT-LIGAND-PDBQT: REMARK    4  A    between atoms: C_10  and  C_11
INPUT-LIGAND-PDBQT: REMARK    5  A    between atoms: C_11  and  N_12
INPUT-LIGAND-PDBQT: REMARK    6  A    between atoms: N_12  and  C_13
INPUT-LIGAND-PDBQT: REMARK    7  A    between atoms: N_12  and  C_15
INPUT-LIGAND-PDBQT: REMARK    8  A    between atoms: C_13  and  C_14
INPUT-LIGAND-PDBQT: REMARK    9  A    between atoms: C_15  and  C_16
INPUT-LIGAND-PDBQT: REMARK   10  A    between atoms: N_21  and  C_22
INPUT-LIGAND-PDBQT: REMARK   11  A    between atoms: C_25  and  C_26
INPUT-LIGAND-PDBQT: REMARK                            x       y       z     vdW  Elec       q    Type
INPUT-LIGAND-PDBQT: REMARK                         _______ _______ _______ _____ _____    ______ ____
INPUT-LIGAND-PDBQT: ROOT
INPUT-LIGAND-PDBQT: ATOM      1  C   UNL     1       1.977  -0.240  -2.333  0.00  0.00    +0.000 C 
INPUT-LIGAND-PDBQT: ENDROOT
INPUT-LIGAND-PDBQT: BRANCH   1   2
INPUT-LIGAND-PDBQT: ATOM      2  C   UNL     1       0.489  -0.155  -2.148  0.00  0.00    +0.000 A 
INPUT-LIGAND-PDBQT: ATOM      3  C   UNL     1      -0.235   0.927  -2.670  0.00  0.00    +0.000 A 
INPUT-LIGAND-PDBQT: ATOM      4  C   UNL     1      -1.618   1.011  -2.480  0.00  0.00    +0.000 A 
INPUT-LIGAND-PDBQT: ATOM      5  C   UNL     1      -2.292   0.020  -1.752  0.00  0.00    +0.000 A 
INPUT-LIGAND-PDBQT: ATOM      6  C   UNL     1      -3.678   0.101  -1.548  0.00  0.00    +0.000 A 
INPUT-LIGAND-PDBQT: ATOM      7  C   UNL     1      -4.344  -0.875  -0.789  0.00  0.00    +0.000 A 
INPUT-LIGAND-PDBQT: ATOM      8  C   UNL     1      -3.618  -1.959  -0.270  0.00  0.00    +0.000 A 
INPUT-LIGAND-PDBQT: ATOM      9  C   UNL     1      -2.238  -2.052  -0.475  0.00  0.00    +0.000 A 
INPUT-LIGAND-PDBQT: ATOM     10  C   UNL     1      -1.565  -1.066  -1.210  0.00  0.00    +0.000 A 
INPUT-LIGAND-PDBQT: ATOM     11  C   UNL     1      -0.179  -1.147  -1.413  0.00  0.00    +0.000 A 
INPUT-LIGAND-PDBQT: BRANCH   7  12
INPUT-LIGAND-PDBQT: ATOM     12  C   UNL     1      -5.835  -0.787  -0.584  0.00  0.00    +0.000 C 
INPUT-LIGAND-PDBQT: BRANCH  12  13
INPUT-LIGAND-PDBQT: ATOM     13  N   UNL     1      -6.225   0.555  -0.099  0.00  0.00    +0.000 N 
INPUT-LIGAND-PDBQT: ATOM     14  H   UNL     1      -5.686   1.169  -0.711  0.00  0.00    +0.000 HD
INPUT-LIGAND-PDBQT: BRANCH  13  15
INPUT-LIGAND-PDBQT: ATOM     15  C   UNL     1      -7.635   0.912  -0.364  0.00  0.00    +0.000 C 
INPUT-LIGAND-PDBQT: ATOM     16  C   UNL     1      -8.637   0.154   0.510  0.00  0.00    +0.000 C 
INPUT-LIGAND-PDBQT: ENDBRANCH  13  15
INPUT-LIGAND-PDBQT: BRANCH  13  17
INPUT-LIGAND-PDBQT: ATOM     17  C   UNL     1      -5.711   0.962   1.234  0.00  0.00    +0.000 C 
INPUT-LIGAND-PDBQT: ATOM     18  C   UNL     1      -5.747  -0.139   2.303  0.00  0.00    +0.000 C 
INPUT-LIGAND-PDBQT: ENDBRANCH  13  17
INPUT-LIGAND-PDBQT: ENDBRANCH  12  13
INPUT-LIGAND-PDBQT: ENDBRANCH   7  12
INPUT-LIGAND-PDBQT: ENDBRANCH   1   2
INPUT-LIGAND-PDBQT: BRANCH   1  19
INPUT-LIGAND-PDBQT: ATOM     19  O   UNL     1       2.620   0.020  -1.090  0.00  0.00    +0.000 OA
INPUT-LIGAND-PDBQT: BRANCH  19  21
INPUT-LIGAND-PDBQT: ATOM     20  O   UNL     1       4.751  -0.293  -1.916  0.00  0.00    +0.000 OA
INPUT-LIGAND-PDBQT: ATOM     21  C   UNL     1       4.008  -0.028  -0.931  0.00  0.00    +0.000 C 
INPUT-LIGAND-PDBQT: ATOM     22  N   UNL     1       4.567   0.181   0.373  0.00  0.00    +0.000 N 
INPUT-LIGAND-PDBQT: ATOM     23  H   UNL     1       3.945   0.266   1.132  0.00  0.00    +0.000 HD
INPUT-LIGAND-PDBQT: BRANCH  22  24
INPUT-LIGAND-PDBQT: ATOM     24  C   UNL     1       5.975   0.276   0.646  0.00  0.00    +0.000 A 
INPUT-LIGAND-PDBQT: ATOM     25  C   UNL     1       6.479  -0.239   1.849  0.00  0.00    +0.000 A 
INPUT-LIGAND-PDBQT: ATOM     26  C   UNL     1       7.839  -0.137   2.152  0.00  0.00    +0.000 A 
INPUT-LIGAND-PDBQT: ATOM     27  C   UNL     1       8.722   0.505   1.264  0.00  0.00    +0.000 A 
INPUT-LIGAND-PDBQT: ATOM     28  C   UNL     1       8.213   1.027   0.061  0.00  0.00    +0.000 A 
INPUT-LIGAND-PDBQT: ATOM     29  C   UNL     1       6.852   0.923  -0.240  0.00  0.00    +0.000 A 
INPUT-LIGAND-PDBQT: BRANCH  27  30
INPUT-LIGAND-PDBQT: ATOM     30  C   UNL     1      10.170   0.626   1.569  0.00  0.00    +0.000 C 
INPUT-LIGAND-PDBQT: ATOM     31  N   UNL     1      10.660   0.544   2.912  0.00  0.00    +0.000 N 
INPUT-LIGAND-PDBQT: ATOM     32  O   UNL     1      11.991   0.554   3.152  0.00  0.00    +0.000 OA
INPUT-LIGAND-PDBQT: ATOM     33  O   UNL     1      10.989   0.819   0.629  0.00  0.00    +0.000 OA
INPUT-LIGAND-PDBQT: ATOM     34  H   UNL     1      10.026   0.481   3.662  0.00  0.00    +0.000 HD
INPUT-LIGAND-PDBQT: ENDBRANCH  27  30
INPUT-LIGAND-PDBQT: ENDBRANCH  22  24
INPUT-LIGAND-PDBQT: ENDBRANCH  19  21
INPUT-LIGAND-PDBQT: ENDBRANCH   1  19
INPUT-LIGAND-PDBQT: TORSDOF 9
________________________________________________________________________________

Total charge on ligand                               =	+0.000 e
REMARK  Name = 
REMARK  11 active torsions:
REMARK  status: ('A' for Active; 'I' for Inactive)
REMARK    1  A    between atoms: C_2  and  O_3
REMARK    2  A    between atoms: O_3  and  C_4
REMARK    3  A    between atoms: C_4  and  C_5
REMARK    4  A    between atoms: C_10  and  C_11
REMARK    5  A    between atoms: C_11  and  N_12
REMARK    6  A    between atoms: N_12  and  C_13
REMARK    7  A    between atoms: N_12  and  C_15
REMARK    8  A    between atoms: C_13  and  C_14
REMARK    9  A    between atoms: C_15  and  C_16
REMARK   10  A    between atoms: N_21  and  C_22
REMARK   11  A    between atoms: C_25  and  C_26
REMARK                            x       y       z     vdW  Elec       q    Type
REMARK                         _______ _______ _______ _____ _____    ______ ____


Number of Rotatable Bonds in Small Molecule =	9 torsions
Number of atoms in ligand:  34

Number of non-hydrogen atoms in ligand:  31

Number of vibrational degrees of freedom of ligand:  96


Number of torsional degrees of freedom = 9
Estimated loss of torsional free energy upon binding = +2.6847 kcal/mol


DPF> about 1.619 0.086 0.013            # small molecule center

Small molecule center of rotation =	(+1.619, +0.086, +0.013)

DPF> tran0 random                         # initial coordinates/A or random

Initial translation =			(29.641, -14.731, 5.825) Angstroms
DPF> quaternion0 random                   # initial orientation

Each run will begin with a new, random initial orientation.
Initial quaternion,  (x,y,z,w) =	( 0.096, 0.952, -0.030, 0.289 ),
DPF> dihe0 random                         # initial dihedrals (relative) or random

DPF> torsdof 9                            # torsional degrees of freedom

Number of torsional degrees of freedom = 9
Free energy coefficient for torsional degrees of freedom = 0.2983, the factory default value.

Estimated loss of torsional free energy upon binding = +2.6847 kcal/mol

DPF> rmstol 2.0                           # cluster_tolerance/A

Maximum RMS tolerance for conformational cluster analysis = 2.00 Angstroms
DPF> extnrg 1000.0                        # external grid energy

External grid energy (beyond grid map walls) = 1000.00

DPF> e0max 0.0 10000                      # max initial energy; max number of retries

Using user-specified maximum number of retries for simanneal initialization, 10000 retries.
If the simanneal initial energy is greater than e0max, 0.000,
then a new, random initial state will be created.

DPF> ga_pop_size 150                      # number of individuals in population

A population of 150 individuals will be used
DPF> ga_num_evals 2500000                 # maximum number of energy evaluations

There will be at most 2500000 function evaluations used.
DPF> ga_num_generations 27000             # maximum number of generations

The GA will run for at most 27000 generations.
DPF> ga_elitism 1                         # number of top individuals to survive to next generation

The 1 best will be preserved each GA generation.
DPF> ga_mutation_rate 0.02                # rate of gene mutation

The mutation rate is 0.020000.
DPF> ga_crossover_rate 0.8                # rate of crossover

The crossover rate is 0.800000.
DPF> ga_window_size 10                    # 

The GA's selection window is 10 generations.
DPF> ga_cauchy_alpha 0.0                  # Alpha parameter of Cauchy distribution

The alpha parameter (for the Cauchy distribution) is being set to 0.000000.
DPF> ga_cauchy_beta 1.0                   # Beta parameter Cauchy distribution

The beta parameter (for the Cauchy distribution) is being set to 1.000000.
DPF> set_ga                               # set the above parameters for GA or LGA

DPF> sw_max_its 300                       # iterations of Solis & Wets local search

Solis & Wets algorithms will perform at most 300 iterations.
DPF> sw_max_succ 4                        # consecutive successes before changing rho

Solis & Wets algorithms expand rho every 4 in a row successes.
DPF> sw_max_fail 4                        # consecutive failures before changing rho

Solis & Wets algorithms contract rho every 4 in a row failures.
DPF> sw_rho 1.0                           # size of local search space to sample

rho is set to 1.000000.
DPF> sw_lb_rho 0.01                       # lower bound on rho

rho will never get smaller than 0.010000.
DPF> ls_search_freq 0.06                  # probability of performing local search on individual

Local search will be performed with frequency 0.060000.
DPF> set_psw1                             # set the above pseudo-Solis & Wets parameters

Creating a new Local Search object using the pseudo-Solis-Wets algorithm (pSW1) with the current settings.

DPF> unbound_model bound                  # state of unbound ligand

DPF> ga_run 100

centering ligand on specified point: 1.619 0.086 0.013
Furthest true ligand atom from "about" center is 10.847 Angstroms (maxrad).
Number of requested GA dockings = 100 runs
Unbound model to be used is 'same as bound' [AutoDock 4.2 default].

	BEGINNING GENETIC ALGORITHM DOCKING 1 of 100
Run: 1 Seed: 2018002284 1148644372 [ Run 1 of 100 GA/GALS ]
Beginning LAMARCKIAN GENETIC ALGORITHM (LGA), with a maximum of 2500000 energy evaluations.

Final-Value: -15.232


	FINAL GENETIC ALGORITHM DOCKED STATE
	_______________________________________________


Detailed state:  trans 18.250 -10.305 2.751 quatxyzw -0.136008 -0.654518 -0.173053 -0.723298 center 1.619 0.086 0.013 ntor 9 -168.1720 135.1901 27.9887 153.4495 -6.6736 -103.8791 -78.0212 -152.8102 170.9076
State:	 18.250 -10.305   2.751  -0.197 -0.948 -0.251 -87.345   -168.17  135.19   27.99  153.45   -6.67 -103.88  -78.02 -152.81  170.91

DOCKED: MODEL        1
DOCKED: USER    Run = 1
DOCKED: USER    DPF = ligand_dock.biased.dpf
DOCKED: USER  
DOCKED: USER    Estimated Free Energy of Binding    =  -10.71 kcal/mol  [=(1)+(2)+(3)-(4)]
DOCKED: USER    Estimated Inhibition Constant, Ki   =   14.18 nM (nanomolar)  [Temperature = 298.15 K]
DOCKED: USER    
DOCKED: USER    (1) Final Intermolecular Energy     =  -13.39 kcal/mol
DOCKED: USER        vdW + Hbond + desolv Energy     =  -13.39 kcal/mol
DOCKED: USER        Electrostatic Energy            =   +0.00 kcal/mol
DOCKED: USER    (2) Final Total Internal Energy     =   -1.84 kcal/mol
DOCKED: USER    (3) Torsional Free Energy           =   +2.68 kcal/mol
DOCKED: USER    (4) Unbound System's Energy  [=(2)] =   -1.84 kcal/mol
DOCKED: USER    
DOCKED: USER    
DOCKED: USER    NEWDPF move ligand.pdbqt
DOCKED: USER    NEWDPF about 1.619000 0.086000 0.013000
DOCKED: USER    NEWDPF tran0 18.250442 -10.304877 2.750882
DOCKED: USER    NEWDPF quaternion0 -0.136008 -0.654518 -0.173053 -0.723298
DOCKED: USER    NEWDPF axisangle0 -0.196960 -0.947841 -0.250607 -87.345041
DOCKED: USER    NEWDPF quat0 -0.196960 -0.947841 -0.250607 -87.345041
DOCKED: USER    NEWDPF dihe0 -168.17 135.19 27.99 153.45 -6.67 -103.88 -78.02 -152.81 170.91 
DOCKED: USER  keepresnum = 1 
DOCKED: USER  
DOCKED: REMARK  Name = 
DOCKED: REMARK  11 active torsions:
DOCKED: REMARK  status: ('A' for Active; 'I' for Inactive)
DOCKED: REMARK    1  A    between atoms: C_2  and  O_3
DOCKED: REMARK    2  A    between atoms: O_3  and  C_4
DOCKED: REMARK    3  A    between atoms: C_4  and  C_5
DOCKED: REMARK    4  A    between atoms: C_10  and  C_11
DOCKED: REMARK    5  A    between atoms: C_11  and  N_12
DOCKED: REMARK    6  A    between atoms: N_12  and  C_13
DOCKED: REMARK    7  A    between atoms: N_12  and  C_15
DOCKED: REMARK    8  A    between atoms: C_13  and  C_14
DOCKED: REMARK    9  A    between atoms: C_15  and  C_16
DOCKED: REMARK   10  A    between atoms: N_21  and  C_22
DOCKED: REMARK   11  A    between atoms: C_25  and  C_26
DOCKED: REMARK                            x       y       z     vdW  Elec       q    Type
DOCKED: REMARK                         _______ _______ _______ _____ _____    ______ ____
DOCKED: USER                              x       y       z     vdW  Elec       q    Type
DOCKED: USER                           _______ _______ _______ _____ _____    ______ ____
DOCKED: ROOT
DOCKED: ATOM      1  C   UNL     1      20.251 -11.618   2.848 -0.68 -0.00    +0.000 C 
DOCKED: ENDROOT
DOCKED: BRANCH   1   2
DOCKED: ATOM      2  C   UNL     1      19.997 -11.356   1.391 -0.65 -0.00    +0.000 A 
DOCKED: ATOM      3  C   UNL     1      18.999 -12.059   0.702 -0.54 -0.00    +0.000 A 
DOCKED: ATOM      4  C   UNL     1      18.778 -11.824  -0.659 -0.39 -0.00    +0.000 A 
DOCKED: ATOM      5  C   UNL     1      19.564 -10.892  -1.351 -0.42 -0.00    +0.000 A 
DOCKED: ATOM      6  C   UNL     1      19.356 -10.656  -2.718 -0.38 -0.00    +0.000 A 
DOCKED: ATOM      7  C   UNL     1      20.168  -9.747  -3.416 -0.37 -0.00    +0.000 A 
DOCKED: ATOM      8  C   UNL     1      21.164  -9.041  -2.724 -0.44 -0.00    +0.000 A 
DOCKED: ATOM      9  C   UNL     1      21.374  -9.264  -1.359 -0.52 -0.00    +0.000 A 
DOCKED: ATOM     10  C   UNL     1      20.583 -10.189  -0.665 -0.57 -0.00    +0.000 A 
DOCKED: ATOM     11  C   UNL     1      20.792 -10.425   0.703 -0.59 -0.00    +0.000 A 
DOCKED: BRANCH   7  12
DOCKED: ATOM     12  C   UNL     1      19.930  -9.491  -4.882 -0.28 -0.00    +0.000 C 
DOCKED: BRANCH  12  13
DOCKED: ATOM     13  N   UNL     1      20.022 -10.745  -5.661 -0.34 -0.00    +0.000 N 
DOCKED: ATOM     14  H   UNL     1      20.165 -10.399  -6.610 -0.01 -0.00    +0.000 HD
DOCKED: BRANCH  13  15
DOCKED: ATOM     15  C   UNL     1      21.227 -11.552  -5.376 -0.53 -0.00    +0.000 C 
DOCKED: ATOM     16  C   UNL     1      22.375 -11.314  -6.359 -0.48 -0.00    +0.000 C 
DOCKED: ENDBRANCH  13  15
DOCKED: BRANCH  13  17
DOCKED: ATOM     17  C   UNL     1      18.767 -11.523  -5.830 -0.35 -0.00    +0.000 C 
DOCKED: ATOM     18  C   UNL     1      17.987 -11.218  -7.116 -0.37 -0.00    +0.000 C 
DOCKED: ENDBRANCH  13  17
DOCKED: ENDBRANCH  12  13
DOCKED: ENDBRANCH   7  12
DOCKED: ENDBRANCH   1   2
DOCKED: BRANCH   1  19
DOCKED: ATOM     19  O   UNL     1      19.298 -10.904   3.627 -0.75 -0.00    +0.000 OA
DOCKED: BRANCH  19  21
DOCKED: ATOM     20  O   UNL     1      17.934  -9.549   2.351 -0.50 -0.00    +0.000 OA
DOCKED: ATOM     21  C   UNL     1      18.043 -10.533   3.134 -0.42 +0.00    +0.000 C 
DOCKED: ATOM     22  N   UNL     1      16.883 -11.255   3.569 -0.39 +0.00    +0.000 N 
DOCKED: ATOM     23  H   UNL     1      17.002 -11.937   4.270 -0.08 +0.00    +0.000 HD
DOCKED: BRANCH  22  24
DOCKED: ATOM     24  C   UNL     1      15.559 -11.052   3.048 -0.46 +0.00    +0.000 A 
DOCKED: ATOM     25  C   UNL     1      14.965 -12.056   2.269 -0.44 +0.00    +0.000 A 
DOCKED: ATOM     26  C   UNL     1      13.689 -11.874   1.728 -0.34 +0.00    +0.000 A 
DOCKED: ATOM     27  C   UNL     1      12.990 -10.671   1.938 -0.28 +0.00    +0.000 A 
DOCKED: ATOM     28  C   UNL     1      13.591  -9.664   2.713 -0.24 +0.00    +0.000 A 
DOCKED: ATOM     29  C   UNL     1      14.867  -9.848   3.254 -0.36 +0.00    +0.000 A 
DOCKED: BRANCH  27  30
DOCKED: ATOM     30  C   UNL     1      11.635 -10.458   1.369 -0.28 +0.00    +0.000 C 
DOCKED: ATOM     31  N   UNL     1      10.937 -11.507   0.689 -0.39 +0.00    +0.000 N 
DOCKED: ATOM     32  O   UNL     1       9.664 -11.318   0.272 -0.34 +0.00    +0.000 OA
DOCKED: ATOM     33  O   UNL     1      11.088  -9.326   1.474 -0.15 +0.00    +0.000 OA
DOCKED: ATOM     34  H   UNL     1      11.385 -12.367   0.523 -0.07 +0.00    +0.000 HD
DOCKED: ENDBRANCH  27  30
DOCKED: ENDBRANCH  22  24
DOCKED: ENDBRANCH  19  21
DOCKED: ENDBRANCH   1  19
DOCKED: TORSDOF 9
DOCKED: TER
DOCKED: ENDMDL
________________________________________________________________________________


	BEGINNING GENETIC ALGORITHM DOCKING 2 of 100
Run: 2 Seed: 1932739911 575839620 [ Run 2 of 100 GA/GALS ]
Beginning LAMARCKIAN GENETIC ALGORITHM (LGA), with a maximum of 2500000 energy evaluations.

Final-Value: -15.374


	FINAL GENETIC ALGORITHM DOCKED STATE
	_______________________________________________


Detailed state:  trans 22.492 -9.396 -6.222 quatxyzw 0.092524 0.428374 0.898593 0.021583 center 1.619 0.086 0.013 ntor 9 -170.1144 58.5257 109.0071 180.0000 134.5608 39.4886 13.6957 93.7011 48.3002
State:	 22.492  -9.396  -6.222   0.093  0.428  0.899 177.527   -170.11   58.53  109.01  180.00  134.56   39.49   13.70   93.70   48.30

DOCKED: MODEL        2
DOCKED: USER    Run = 2
DOCKED: USER    DPF = ligand_dock.biased.dpf
DOCKED: USER  
DOCKED: USER    Estimated Free Energy of Binding    =  -11.16 kcal/mol  [=(1)+(2)+(3)-(4)]
DOCKED: USER    Estimated Inhibition Constant, Ki   =    6.59 nM (nanomolar)  [Temperature = 298.15 K]
DOCKED: USER    
DOCKED: USER    (1) Final Intermolecular Energy     =  -13.85 kcal/mol
DOCKED: USER        vdW + Hbond + desolv Energy     =  -13.85 kcal/mol
DOCKED: USER        Electrostatic Energy            =   +0.00 kcal/mol
DOCKED: USER    (2) Final Total Internal Energy     =   -1.53 kcal/mol
DOCKED: USER    (3) Torsional Free Energy           =   +2.68 kcal/mol
DOCKED: USER    (4) Unbound System's Energy  [=(2)] =   -1.53 kcal/mol
DOCKED: USER    
DOCKED: USER    
DOCKED: USER    NEWDPF move ligand.pdbqt
DOCKED: USER    NEWDPF about 1.619000 0.086000 0.013000
DOCKED: USER    NEWDPF tran0 22.491645 -9.395503 -6.222120
DOCKED: USER    NEWDPF quaternion0 0.092524 0.428374 0.898593 0.021583
DOCKED: USER    NEWDPF axisangle0 0.092545 0.428474 0.898802 177.526536
DOCKED: USER    NEWDPF quat0 0.092545 0.428474 0.898802 177.526536
DOCKED: USER    NEWDPF dihe0 -170.11 58.53 109.01 180.00 134.56 39.49 13.70 93.70 48.30 
DOCKED: USER  keepresnum = 1 
DOCKED: USER  
DOCKED: REMARK  Name = 
DOCKED: REMARK  11 active torsions:
DOCKED: REMARK  status: ('A' for Active; 'I' for Inactive)
DOCKED: REMARK    1  A    between atoms: C_2  and  O_3
DOCKED: REMARK    2  A    between atoms: O_3  and  C_4
DOCKED: REMARK    3  A    between atoms: C_4  and  C_5
DOCKED: REMARK    4  A    between atoms: C_10  and  C_11
DOCKED: REMARK    5  A    between atoms: C_11  and  N_12
DOCKED: REMARK    6  A    between atoms: N_12  and  C_13
DOCKED: REMARK    7  A    between atoms: N_12  and  C_15
DOCKED: REMARK    8  A    between atoms: C_13  and  C_14
DOCKED: REMARK    9  A    between atoms: C_15  and  C_16
DOCKED: REMARK   10  A    between atoms: N_21  and  C_22
DOCKED: REMARK   11  A    between atoms: C_25  and  C_26
DOCKED: REMARK                            x       y       z     vdW  Elec       q    Type
DOCKED: REMARK                         _______ _______ _______ _____ _____    ______ ____
DOCKED: USER                              x       y       z     vdW  Elec       q    Type
DOCKED: USER                           _______ _______ _______ _____ _____    ______ ____
DOCKED: ROOT
DOCKED: ATOM      1  C   UNL     1      21.755 -10.990  -7.850 -0.27 -0.00    +0.000 C 
DOCKED: ENDROOT
DOCKED: BRANCH   1   2
DOCKED: ATOM      2  C   UNL     1      23.253 -10.961  -7.946 -0.33 -0.00    +0.000 A 
DOCKED: ATOM      3  C   UNL     1      23.951 -12.014  -8.557 -0.40 -0.00    +0.000 A 
DOCKED: ATOM      4  C   UNL     1      25.347 -11.991  -8.628 -0.38 -0.00    +0.000 A 
DOCKED: ATOM      5  C   UNL     1      26.065 -10.920  -8.076 -0.32 -0.00    +0.000 A 
DOCKED: ATOM      6  C   UNL     1      27.466 -10.893  -8.134 -0.25 -0.00    +0.000 A 
DOCKED: ATOM      7  C   UNL     1      28.183  -9.836  -7.549 -0.45 -0.00    +0.000 A 
DOCKED: ATOM      8  C   UNL     1      27.483  -8.782  -6.942 -0.38 -0.00    +0.000 A 
DOCKED: ATOM      9  C   UNL     1      26.086  -8.796  -6.886 -0.26 -0.00    +0.000 A 
DOCKED: ATOM     10  C   UNL     1      25.368  -9.862  -7.446 -0.25 -0.00    +0.000 A 
DOCKED: ATOM     11  C   UNL     1      23.966  -9.889  -7.386 -0.25 -0.00    +0.000 A 
DOCKED: BRANCH   7  12
DOCKED: ATOM     12  C   UNL     1      29.688  -9.809  -7.626 -0.41 -0.00    +0.000 C 
DOCKED: BRANCH  12  13
DOCKED: ATOM     13  N   UNL     1      30.143  -9.232  -8.910 -0.22 -0.00    +0.000 N 
DOCKED: ATOM     14  H   UNL     1      30.876  -9.885  -9.191 -0.23 -0.00    +0.000 HD
DOCKED: BRANCH  13  15
DOCKED: ATOM     15  C   UNL     1      29.145  -9.305  -9.998 -0.19 -0.00    +0.000 C 
DOCKED: ATOM     16  C   UNL     1      29.355 -10.485 -10.949 -0.28 -0.00    +0.000 C 
DOCKED: ENDBRANCH  13  15
DOCKED: BRANCH  13  17
DOCKED: ATOM     17  C   UNL     1      30.909  -7.961  -8.840 -0.12 -0.00    +0.000 C 
DOCKED: ATOM     18  C   UNL     1      31.476  -7.625  -7.454 -0.17 -0.00    +0.000 C 
DOCKED: ENDBRANCH  13  17
DOCKED: ENDBRANCH  12  13
DOCKED: ENDBRANCH   7  12
DOCKED: ENDBRANCH   1   2
DOCKED: BRANCH   1  19
DOCKED: ATOM     19  O   UNL     1      21.338 -10.167  -6.767 -0.29 -0.00    +0.000 OA
DOCKED: BRANCH  19  21
DOCKED: ATOM     20  O   UNL     1      21.726 -11.749  -5.134 -0.66 -0.00    +0.000 OA
DOCKED: ATOM     21  C   UNL     1      21.213 -10.643  -5.459 -0.45 -0.00    +0.000 C 
DOCKED: ATOM     22  N   UNL     1      20.455  -9.880  -4.510 -0.31 -0.00    +0.000 N 
DOCKED: ATOM     23  H   UNL     1      19.974  -9.085  -4.837 +0.00 -0.00    +0.000 HD
DOCKED: BRANCH  22  24
DOCKED: ATOM     24  C   UNL     1      20.353 -10.197  -3.111 -0.43 -0.00    +0.000 A 
DOCKED: ATOM     25  C   UNL     1      19.164 -10.753  -2.617 -0.37 -0.00    +0.000 A 
DOCKED: ATOM     26  C   UNL     1      19.027 -11.046  -1.258 -0.40 -0.00    +0.000 A 
DOCKED: ATOM     27  C   UNL     1      20.073 -10.768  -0.359 -0.53 -0.00    +0.000 A 
DOCKED: ATOM     28  C   UNL     1      21.262 -10.204  -0.856 -0.61 -0.00    +0.000 A 
DOCKED: ATOM     29  C   UNL     1      21.396  -9.912  -2.216 -0.50 -0.00    +0.000 A 
DOCKED: BRANCH  27  30
DOCKED: ATOM     30  C   UNL     1      19.945 -11.070   1.089 -0.69 -0.00    +0.000 C 
DOCKED: ATOM     31  N   UNL     1      20.277 -12.360   1.615 -0.71 -0.00    +0.000 N 
DOCKED: ATOM     32  O   UNL     1      20.251 -12.577   2.950 -1.59 -0.00    +0.000 OA
DOCKED: ATOM     33  O   UNL     1      19.523 -10.178   1.875 -0.68 -0.00    +0.000 OA
DOCKED: ATOM     34  H   UNL     1      20.524 -13.090   1.003 -0.49 -0.00    +0.000 HD
DOCKED: ENDBRANCH  27  30
DOCKED: ENDBRANCH  22  24
DOCKED: ENDBRANCH  19  21
DOCKED: ENDBRANCH   1  19
DOCKED: TORSDOF 9
DOCKED: TER
DOCKED: ENDMDL
________________________________________________________________________________


	BEGINNING GENETIC ALGORITHM DOCKING 3 of 100
Run: 3 Seed: 1837001922 34214498 [ Run 3 of 100 GA/GALS ]
Beginning LAMARCKIAN GENETIC ALGORITHM (LGA), with a maximum of 2500000 energy evaluations.

Final-Value: -14.737


	FINAL GENETIC ALGORITHM DOCKED STATE
	_______________________________________________


Detailed state:  trans 20.906 -7.735 -5.170 quatxyzw -0.071289 -0.476298 0.576672 -0.659930 center 1.619 0.086 0.013 ntor 9 -3.2320 162.2800 179.2089 10.7024 -180.0000 -59.9697 86.4683 -101.4892 -63.1252
State:	 20.906  -7.735  -5.170  -0.095 -0.634  0.768 -97.411     -3.23  162.28  179.21   10.70 -180.00  -59.97   86.47 -101.49  -63.13

DOCKED: MODEL        3
DOCKED: USER    Run = 3
DOCKED: USER    DPF = ligand_dock.biased.dpf
DOCKED: USER  
DOCKED: USER    Estimated Free Energy of Binding    =  -10.33 kcal/mol  [=(1)+(2)+(3)-(4)]
DOCKED: USER    Estimated Inhibition Constant, Ki   =   26.93 nM (nanomolar)  [Temperature = 298.15 K]
DOCKED: USER    
DOCKED: USER    (1) Final Intermolecular Energy     =  -13.01 kcal/mol
DOCKED: USER        vdW + Hbond + desolv Energy     =  -13.01 kcal/mol
DOCKED: USER        Electrostatic Energy            =   +0.00 kcal/mol
DOCKED: USER    (2) Final Total Internal Energy     =   -1.73 kcal/mol
DOCKED: USER    (3) Torsional Free Energy           =   +2.68 kcal/mol
DOCKED: USER    (4) Unbound System's Energy  [=(2)] =   -1.73 kcal/mol
DOCKED: USER    
DOCKED: USER    
DOCKED: USER    NEWDPF move ligand.pdbqt
DOCKED: USER    NEWDPF about 1.619000 0.086000 0.013000
DOCKED: USER    NEWDPF tran0 20.905534 -7.734999 -5.169722
DOCKED: USER    NEWDPF quaternion0 -0.071289 -0.476298 0.576672 -0.659930
DOCKED: USER    NEWDPF axisangle0 -0.094885 -0.633942 0.767538 -97.410999
DOCKED: USER    NEWDPF quat0 -0.094885 -0.633942 0.767538 -97.410999
DOCKED: USER    NEWDPF dihe0 -3.23 162.28 179.21 10.70 -180.00 -59.97 86.47 -101.49 -63.13 
DOCKED: USER  keepresnum = 1 
DOCKED: USER  
DOCKED: REMARK  Name = 
DOCKED: REMARK  11 active torsions:
DOCKED: REMARK  status: ('A' for Active; 'I' for Inactive)
DOCKED: REMARK    1  A    between atoms: C_2  and  O_3
DOCKED: REMARK    2  A    between atoms: O_3  and  C_4
DOCKED: REMARK    3  A    between atoms: C_4  and  C_5
DOCKED: REMARK    4  A    between atoms: C_10  and  C_11
DOCKED: REMARK    5  A    between atoms: C_11  and  N_12
DOCKED: REMARK    6  A    between atoms: N_12  and  C_13
DOCKED: REMARK    7  A    between atoms: N_12  and  C_15
DOCKED: REMARK    8  A    between atoms: C_13  and  C_14
DOCKED: REMARK    9  A    between atoms: C_15  and  C_16
DOCKED: REMARK   10  A    between atoms: N_21  and  C_22
DOCKED: REMARK   11  A    between atoms: C_25  and  C_26
DOCKED: REMARK                            x       y       z     vdW  Elec       q    Type
DOCKED: REMARK                         _______ _______ _______ _____ _____    ______ ____
DOCKED: USER                              x       y       z     vdW  Elec       q    Type
DOCKED: USER                           _______ _______ _______ _____ _____    ______ ____
DOCKED: ROOT
DOCKED: ATOM      1  C   UNL     1      22.757  -6.476  -6.022 -0.15 -0.00    +0.000 C 
DOCKED: ENDROOT
DOCKED: BRANCH   1   2
DOCKED: ATOM      2  C   UNL     1      22.743  -7.766  -6.791 -0.15 -0.00    +0.000 A 
DOCKED: ATOM      3  C   UNL     1      21.561  -8.230  -7.387 -0.10 -0.00    +0.000 A 
DOCKED: ATOM      4  C   UNL     1      21.549  -9.441  -8.086 -0.15 -0.00    +0.000 A 
DOCKED: ATOM      5  C   UNL     1      22.717 -10.211  -8.186 -0.22 -0.00    +0.000 A 
DOCKED: ATOM      6  C   UNL     1      22.712 -11.431  -8.878 -0.28 -0.00    +0.000 A 
DOCKED: ATOM      7  C   UNL     1      23.875 -12.216  -8.946 -0.38 -0.00    +0.000 A 
DOCKED: ATOM      8  C   UNL     1      25.058 -11.748  -8.351 -0.41 -0.00    +0.000 A 
DOCKED: ATOM      9  C   UNL     1      25.074 -10.529  -7.666 -0.31 -0.00    +0.000 A 
DOCKED: ATOM     10  C   UNL     1      23.909  -9.755  -7.574 -0.25 -0.00    +0.000 A 
DOCKED: ATOM     11  C   UNL     1      23.914  -8.535  -6.881 -0.16 -0.00    +0.000 A 
DOCKED: BRANCH   7  12
DOCKED: ATOM     12  C   UNL     1      23.864 -13.521  -9.700 -0.37 -0.00    +0.000 C 
DOCKED: BRANCH  12  13
DOCKED: ATOM     13  N   UNL     1      24.991 -13.589 -10.656 -0.31 -0.00    +0.000 N 
DOCKED: ATOM     14  H   UNL     1      25.797 -13.431 -10.049 -0.55 -0.00    +0.000 HD
DOCKED: BRANCH  13  15
DOCKED: ATOM     15  C   UNL     1      25.219 -14.931 -11.233 -0.37 -0.00    +0.000 C 
DOCKED: ATOM     16  C   UNL     1      24.113 -15.388 -12.187 -0.29 +0.00    +0.000 C 
DOCKED: ENDBRANCH  13  15
DOCKED: BRANCH  13  17
DOCKED: ATOM     17  C   UNL     1      25.130 -12.460 -11.611 -0.18 -0.00    +0.000 C 
DOCKED: ATOM     18  C   UNL     1      26.464 -11.704 -11.527 -0.16 -0.00    +0.000 C 
DOCKED: ENDBRANCH  13  17
DOCKED: ENDBRANCH  12  13
DOCKED: ENDBRANCH   7  12
DOCKED: ENDBRANCH   1   2
DOCKED: BRANCH   1  19
DOCKED: ATOM     19  O   UNL     1      21.616  -6.424  -5.172 -0.17 -0.00    +0.000 OA
DOCKED: BRANCH  19  21
DOCKED: ATOM     20  O   UNL     1      21.974  -6.654  -2.904 -0.38 -0.00    +0.000 OA
DOCKED: ATOM     21  C   UNL     1      21.529  -7.146  -3.978 -0.31 -0.00    +0.000 C 
DOCKED: ATOM     22  N   UNL     1      20.971  -8.467  -4.002 -0.32 -0.00    +0.000 N 
DOCKED: ATOM     23  H   UNL     1      20.747  -8.856  -4.879 +0.00 -0.00    +0.000 HD
DOCKED: BRANCH  22  24
DOCKED: ATOM     24  C   UNL     1      20.717  -9.262  -2.832 -0.43 -0.00    +0.000 A 
DOCKED: ATOM     25  C   UNL     1      19.732 -10.259  -2.878 -0.39 -0.00    +0.000 A 
DOCKED: ATOM     26  C   UNL     1      19.445 -11.029  -1.748 -0.35 -0.00    +0.000 A 
DOCKED: ATOM     27  C   UNL     1      20.125 -10.800  -0.537 -0.51 -0.00    +0.000 A 
DOCKED: ATOM     28  C   UNL     1      21.108  -9.794  -0.491 -0.61 -0.00    +0.000 A 
DOCKED: ATOM     29  C   UNL     1      21.393  -9.026  -1.624 -0.48 -0.00    +0.000 A 
DOCKED: BRANCH  27  30
DOCKED: ATOM     30  C   UNL     1      19.833 -11.605   0.675 -0.67 -0.00    +0.000 C 
DOCKED: ATOM     31  N   UNL     1      20.792 -11.743   1.730 -0.72 -0.00    +0.000 N 
DOCKED: ATOM     32  O   UNL     1      20.463 -12.395   2.868 -1.68 -0.00    +0.000 OA
DOCKED: ATOM     33  O   UNL     1      18.722 -12.194   0.778 -0.80 -0.00    +0.000 OA
DOCKED: ATOM     34  H   UNL     1      21.693 -11.362   1.625 -0.41 -0.00    +0.000 HD
DOCKED: ENDBRANCH  27  30
DOCKED: ENDBRANCH  22  24
DOCKED: ENDBRANCH  19  21
DOCKED: ENDBRANCH   1  19
DOCKED: TORSDOF 9
DOCKED: TER
DOCKED: ENDMDL
________________________________________________________________________________


	BEGINNING GENETIC ALGORITHM DOCKING 4 of 100
Run: 4 Seed: 180884445 2112292769 [ Run 4 of 100 GA/GALS ]
Beginning LAMARCKIAN GENETIC ALGORITHM (LGA), with a maximum of 2500000 energy evaluations.

Final-Value: -15.186


	FINAL GENETIC ALGORITHM DOCKED STATE
	_______________________________________________


Detailed state:  trans 19.906 -9.537 0.622 quatxyzw 0.871123 0.161027 0.028389 0.463043 center 1.619 0.086 0.013 ntor 9 -177.7992 66.1705 -167.2610 -92.9378 -55.1042 5.6738 -54.2713 109.2613 -39.6277
State:	 19.906  -9.537   0.622   0.983  0.182  0.032 124.833   -177.80   66.17 -167.26  -92.94  -55.10    5.67  -54.27  109.26  -39.63

DOCKED: MODEL        4
DOCKED: USER    Run = 4
DOCKED: USER    DPF = ligand_dock.biased.dpf
DOCKED: USER  
DOCKED: USER    Estimated Free Energy of Binding    =  -10.75 kcal/mol  [=(1)+(2)+(3)-(4)]
DOCKED: USER    Estimated Inhibition Constant, Ki   =   13.24 nM (nanomolar)  [Temperature = 298.15 K]
DOCKED: USER    
DOCKED: USER    (1) Final Intermolecular Energy     =  -13.43 kcal/mol
DOCKED: USER        vdW + Hbond + desolv Energy     =  -13.43 kcal/mol
DOCKED: USER        Electrostatic Energy            =   +0.00 kcal/mol
DOCKED: USER    (2) Final Total Internal Energy     =   -1.75 kcal/mol
DOCKED: USER    (3) Torsional Free Energy           =   +2.68 kcal/mol
DOCKED: USER    (4) Unbound System's Energy  [=(2)] =   -1.75 kcal/mol
DOCKED: USER    
DOCKED: USER    
DOCKED: USER    NEWDPF move ligand.pdbqt
DOCKED: USER    NEWDPF about 1.619000 0.086000 0.013000
DOCKED: USER    NEWDPF tran0 19.905641 -9.536789 0.621554
DOCKED: USER    NEWDPF quaternion0 0.871123 0.161027 0.028389 0.463043
DOCKED: USER    NEWDPF axisangle0 0.982836 0.181677 0.032029 124.832736
DOCKED: USER    NEWDPF quat0 0.982836 0.181677 0.032029 124.832736
DOCKED: USER    NEWDPF dihe0 -177.80 66.17 -167.26 -92.94 -55.10 5.67 -54.27 109.26 -39.63 
DOCKED: USER  keepresnum = 1 
DOCKED: USER  
DOCKED: REMARK  Name = 
DOCKED: REMARK  11 active torsions:
DOCKED: REMARK  status: ('A' for Active; 'I' for Inactive)
DOCKED: REMARK    1  A    between atoms: C_2  and  O_3
DOCKED: REMARK    2  A    between atoms: O_3  and  C_4
DOCKED: REMARK    3  A    between atoms: C_4  and  C_5
DOCKED: REMARK    4  A    between atoms: C_10  and  C_11
DOCKED: REMARK    5  A    between atoms: C_11  and  N_12
DOCKED: REMARK    6  A    between atoms: N_12  and  C_13
DOCKED: REMARK    7  A    between atoms: N_12  and  C_15
DOCKED: REMARK    8  A    between atoms: C_13  and  C_14
DOCKED: REMARK    9  A    between atoms: C_15  and  C_16
DOCKED: REMARK   10  A    between atoms: N_21  and  C_22
DOCKED: REMARK   11  A    between atoms: C_25  and  C_26
DOCKED: REMARK                            x       y       z     vdW  Elec       q    Type
DOCKED: REMARK                         _______ _______ _______ _____ _____    ______ ____
DOCKED: USER                              x       y       z     vdW  Elec       q    Type
DOCKED: USER                           _______ _______ _______ _____ _____    ______ ____
DOCKED: ROOT
DOCKED: ATOM      1  C   UNL     1      20.378 -11.191   2.289 -0.74 -0.00    +0.000 C 
DOCKED: ENDROOT
DOCKED: BRANCH   1   2
DOCKED: ATOM      2  C   UNL     1      18.977 -11.462   1.820 -0.56 -0.00    +0.000 A 
DOCKED: ATOM      3  C   UNL     1      18.744 -12.032   0.560 -0.52 -0.00    +0.000 A 
DOCKED: ATOM      4  C   UNL     1      17.437 -12.267   0.121 -0.46 +0.00    +0.000 A 
DOCKED: ATOM      5  C   UNL     1      16.347 -11.920   0.931 -0.42 +0.00    +0.000 A 
DOCKED: ATOM      6  C   UNL     1      15.032 -12.143   0.495 -0.43 +0.00    +0.000 A 
DOCKED: ATOM      7  C   UNL     1      13.942 -11.762   1.294 -0.40 +0.00    +0.000 A 
DOCKED: ATOM      8  C   UNL     1      14.178 -11.195   2.557 -0.39 +0.00    +0.000 A 
DOCKED: ATOM      9  C   UNL     1      15.485 -10.976   3.003 -0.45 +0.00    +0.000 A 
DOCKED: ATOM     10  C   UNL     1      16.576 -11.331   2.197 -0.38 +0.00    +0.000 A 
DOCKED: ATOM     11  C   UNL     1      17.890 -11.107   2.634 -0.41 +0.00    +0.000 A 
DOCKED: BRANCH   7  12
DOCKED: ATOM     12  C   UNL     1      12.533 -12.016   0.823 -0.37 +0.00    +0.000 C 
DOCKED: BRANCH  12  13
DOCKED: ATOM     13  N   UNL     1      11.884 -10.758   0.391 -0.29 +0.00    +0.000 N 
DOCKED: ATOM     14  H   UNL     1      12.100 -10.129   1.165 +0.00 +0.00    +0.000 HD
DOCKED: BRANCH  13  15
DOCKED: ATOM     15  C   UNL     1      12.512 -10.124  -0.789 -0.25 +0.00    +0.000 C 
DOCKED: ATOM     16  C   UNL     1      13.338  -8.880  -0.452 -0.17 -0.00    +0.000 C 
DOCKED: ENDBRANCH  13  15
DOCKED: BRANCH  13  17
DOCKED: ATOM     17  C   UNL     1      10.399 -10.729   0.407 -0.29 +0.00    +0.000 C 
DOCKED: ATOM     18  C   UNL     1       9.745 -11.717   1.383 -0.41 +0.00    +0.000 C 
DOCKED: ENDBRANCH  13  17
DOCKED: ENDBRANCH  12  13
DOCKED: ENDBRANCH   7  12
DOCKED: ENDBRANCH   1   2
DOCKED: BRANCH   1  19
DOCKED: ATOM     19  O   UNL     1      20.943 -10.148   1.501 -0.64 -0.00    +0.000 OA
DOCKED: BRANCH  19  21
DOCKED: ATOM     20  O   UNL     1      22.129 -11.268  -0.130 -0.57 -0.00    +0.000 OA
DOCKED: ATOM     21  C   UNL     1      21.338 -10.332   0.173 -0.66 -0.00    +0.000 C 
DOCKED: ATOM     22  N   UNL     1      20.871  -9.415  -0.826 -0.58 -0.00    +0.000 N 
DOCKED: ATOM     23  H   UNL     1      20.353  -8.633  -0.526 -0.04 -0.00    +0.000 HD
DOCKED: BRANCH  22  24
DOCKED: ATOM     24  C   UNL     1      21.106  -9.564  -2.236 -0.50 -0.00    +0.000 A 
DOCKED: ATOM     25  C   UNL     1      21.421  -8.434  -3.004 -0.38 -0.00    +0.000 A 
DOCKED: ATOM     26  C   UNL     1      21.629  -8.545  -4.381 -0.27 -0.00    +0.000 A 
DOCKED: ATOM     27  C   UNL     1      21.502  -9.790  -5.024 -0.34 -0.00    +0.000 A 
DOCKED: ATOM     28  C   UNL     1      21.178 -10.921  -4.253 -0.46 -0.00    +0.000 A 
DOCKED: ATOM     29  C   UNL     1      20.972 -10.808  -2.875 -0.38 -0.00    +0.000 A 
DOCKED: BRANCH  27  30
DOCKED: ATOM     30  C   UNL     1      21.716  -9.928  -6.487 -0.32 -0.00    +0.000 C 
DOCKED: ATOM     31  N   UNL     1      21.788 -11.214  -7.113 -0.32 -0.00    +0.000 N 
DOCKED: ATOM     32  O   UNL     1      21.880 -11.311  -8.459 -0.33 -0.00    +0.000 OA
DOCKED: ATOM     33  O   UNL     1      21.850  -8.893  -7.196 -0.17 -0.00    +0.000 OA
DOCKED: ATOM     34  H   UNL     1      21.772 -12.029  -6.562 -0.53 -0.00    +0.000 HD
DOCKED: ENDBRANCH  27  30
DOCKED: ENDBRANCH  22  24
DOCKED: ENDBRANCH  19  21
DOCKED: ENDBRANCH   1  19
DOCKED: TORSDOF 9
DOCKED: TER
DOCKED: ENDMDL
________________________________________________________________________________


	BEGINNING GENETIC ALGORITHM DOCKING 5 of 100
Run: 5 Seed: 300002698 1142206606 [ Run 5 of 100 GA/GALS ]
Beginning LAMARCKIAN GENETIC ALGORITHM (LGA), with a maximum of 2500000 energy evaluations.

Final-Value: -14.276


	FINAL GENETIC ALGORITHM DOCKED STATE
	_______________________________________________


Detailed state:  trans 19.586 -9.398 -4.764 quatxyzw 0.197795 0.021225 -0.090567 0.975820 center 1.619 0.086 0.013 ntor 9 160.3452 26.7994 -98.5341 -64.9340 -176.4672 -0.6575 91.5474 -96.5671 -95.9566
State:	 19.586  -9.398  -4.764   0.905  0.097 -0.414 25.251    160.35   26.80  -98.53  -64.93 -176.47   -0.66   91.55  -96.57  -95.96

DOCKED: MODEL        5
DOCKED: USER    Run = 5
DOCKED: USER    DPF = ligand_dock.biased.dpf
DOCKED: USER  
DOCKED: USER    Estimated Free Energy of Binding    =  -10.04 kcal/mol  [=(1)+(2)+(3)-(4)]
DOCKED: USER    Estimated Inhibition Constant, Ki   =   43.92 nM (nanomolar)  [Temperature = 298.15 K]
DOCKED: USER    
DOCKED: USER    (1) Final Intermolecular Energy     =  -12.72 kcal/mol
DOCKED: USER        vdW + Hbond + desolv Energy     =  -12.72 kcal/mol
DOCKED: USER        Electrostatic Energy            =   +0.00 kcal/mol
DOCKED: USER    (2) Final Total Internal Energy     =   -1.55 kcal/mol
DOCKED: USER    (3) Torsional Free Energy           =   +2.68 kcal/mol
DOCKED: USER    (4) Unbound System's Energy  [=(2)] =   -1.55 kcal/mol
DOCKED: USER    
DOCKED: USER    
DOCKED: USER    NEWDPF move ligand.pdbqt
DOCKED: USER    NEWDPF about 1.619000 0.086000 0.013000
DOCKED: USER    NEWDPF tran0 19.585567 -9.398490 -4.763856
DOCKED: USER    NEWDPF quaternion0 0.197795 0.021225 -0.090567 0.975820
DOCKED: USER    NEWDPF axisangle0 0.904922 0.097104 -0.414350 25.250915
DOCKED: USER    NEWDPF quat0 0.904922 0.097104 -0.414350 25.250915
DOCKED: USER    NEWDPF dihe0 160.35 26.80 -98.53 -64.93 -176.47 -0.66 91.55 -96.57 -95.96 
DOCKED: USER  keepresnum = 1 
DOCKED: USER  
DOCKED: REMARK  Name = 
DOCKED: REMARK  11 active torsions:
DOCKED: REMARK  status: ('A' for Active; 'I' for Inactive)
DOCKED: REMARK    1  A    between atoms: C_2  and  O_3
DOCKED: REMARK    2  A    between atoms: O_3  and  C_4
DOCKED: REMARK    3  A    between atoms: C_4  and  C_5
DOCKED: REMARK    4  A    between atoms: C_10  and  C_11
DOCKED: REMARK    5  A    between atoms: C_11  and  N_12
DOCKED: REMARK    6  A    between atoms: N_12  and  C_13
DOCKED: REMARK    7  A    between atoms: N_12  and  C_15
DOCKED: REMARK    8  A    between atoms: C_13  and  C_14
DOCKED: REMARK    9  A    between atoms: C_15  and  C_16
DOCKED: REMARK   10  A    between atoms: N_21  and  C_22
DOCKED: REMARK   11  A    between atoms: C_25  and  C_26
DOCKED: REMARK                            x       y       z     vdW  Elec       q    Type
DOCKED: REMARK                         _______ _______ _______ _____ _____    ______ ____
DOCKED: USER                              x       y       z     vdW  Elec       q    Type
DOCKED: USER                           _______ _______ _______ _____ _____    ______ ____
DOCKED: ROOT
DOCKED: ATOM      1  C   UNL     1      20.173 -10.524  -6.795 -0.32 -0.00    +0.000 C 
DOCKED: ENDROOT
DOCKED: BRANCH   1   2
DOCKED: ATOM      2  C   UNL     1      18.683 -10.652  -6.666 -0.30 -0.00    +0.000 A 
DOCKED: ATOM      3  C   UNL     1      17.967  -9.818  -5.794 -0.19 -0.00    +0.000 A 
DOCKED: ATOM      4  C   UNL     1      16.581  -9.953  -5.664 -0.17 -0.00    +0.000 A 
DOCKED: ATOM      5  C   UNL     1      15.895 -10.934  -6.395 -0.24 -0.00    +0.000 A 
DOCKED: ATOM      6  C   UNL     1      14.506 -11.083  -6.264 -0.22 -0.00    +0.000 A 
DOCKED: ATOM      7  C   UNL     1      13.828 -12.089  -6.970 -0.26 -0.00    +0.000 A 
DOCKED: ATOM      8  C   UNL     1      14.546 -12.921  -7.845 -0.36 -0.00    +0.000 A 
DOCKED: ATOM      9  C   UNL     1      15.929 -12.774  -7.988 -0.26 +0.00    +0.000 A 
DOCKED: ATOM     10  C   UNL     1      16.614 -11.788  -7.264 -0.34 -0.00    +0.000 A 
DOCKED: ATOM     11  C   UNL     1      18.003 -11.640  -7.395 -0.22 -0.00    +0.000 A 
DOCKED: BRANCH   7  12
DOCKED: ATOM     12  C   UNL     1      12.334 -12.235  -6.833 -0.15 -0.00    +0.000 C 
DOCKED: BRANCH  12  13
DOCKED: ATOM     13  N   UNL     1      11.690 -12.368  -8.158 -0.13 -0.00    +0.000 N 
DOCKED: ATOM     14  H   UNL     1      12.403 -11.987  -8.781 +0.00 -0.00    +0.000 HD
DOCKED: BRANCH  13  15
DOCKED: ATOM     15  C   UNL     1      11.511 -13.765  -8.609 -0.18 -0.00    +0.000 C 
DOCKED: ATOM     16  C   UNL     1      12.074 -14.038 -10.006 -0.14 -0.00    +0.000 C 
DOCKED: ENDBRANCH  13  15
DOCKED: BRANCH  13  17
DOCKED: ATOM     17  C   UNL     1      10.549 -11.461  -8.443 -0.07 -0.00    +0.000 C 
DOCKED: ATOM     18  C   UNL     1       9.963 -10.755  -7.213 -0.08 -0.00    +0.000 C 
DOCKED: ENDBRANCH  13  17
DOCKED: ENDBRANCH  12  13
DOCKED: ENDBRANCH   7  12
DOCKED: ENDBRANCH   1   2
DOCKED: BRANCH   1  19
DOCKED: ATOM     19  O   UNL     1      20.666  -9.694  -5.748 -0.25 -0.00    +0.000 OA
DOCKED: BRANCH  19  21
DOCKED: ATOM     20  O   UNL     1      22.046 -10.593  -4.133 -0.52 -0.00    +0.000 OA
DOCKED: ATOM     21  C   UNL     1      20.902 -10.168  -4.455 -0.44 -0.00    +0.000 C 
DOCKED: ATOM     22  N   UNL     1      19.817 -10.207  -3.518 -0.36 -0.00    +0.000 N 
DOCKED: ATOM     23  H   UNL     1      18.917  -9.978  -3.847 -0.00 -0.00    +0.000 HD
DOCKED: BRANCH  22  24
DOCKED: ATOM     24  C   UNL     1      19.955 -10.557  -2.131 -0.43 -0.00    +0.000 A 
DOCKED: ATOM     25  C   UNL     1      18.918 -11.251  -1.490 -0.37 -0.00    +0.000 A 
DOCKED: ATOM     26  C   UNL     1      19.014 -11.581  -0.136 -0.48 -0.00    +0.000 A 
DOCKED: ATOM     27  C   UNL     1      20.144 -11.201   0.613 -0.61 -0.00    +0.000 A 
DOCKED: ATOM     28  C   UNL     1      21.179 -10.499  -0.030 -0.62 -0.00    +0.000 A 
DOCKED: ATOM     29  C   UNL     1      21.081 -10.171  -1.386 -0.57 -0.00    +0.000 A 
DOCKED: BRANCH  27  30
DOCKED: ATOM     30  C   UNL     1      20.264 -11.540   2.054 -0.78 -0.00    +0.000 C 
DOCKED: ATOM     31  N   UNL     1      20.413 -10.523   3.050 -0.66 -0.00    +0.000 N 
DOCKED: ATOM     32  O   UNL     1      20.416 -10.851   4.362 -0.92 -0.00    +0.000 OA
DOCKED: ATOM     33  O   UNL     1      20.248 -12.750   2.411 -1.54 -0.00    +0.000 OA
DOCKED: ATOM     34  H   UNL     1      20.513  -9.582   2.779 -0.56 -0.00    +0.000 HD
DOCKED: ENDBRANCH  27  30
DOCKED: ENDBRANCH  22  24
DOCKED: ENDBRANCH  19  21
DOCKED: ENDBRANCH   1  19
DOCKED: TORSDOF 9
DOCKED: TER
DOCKED: ENDMDL
________________________________________________________________________________


	BEGINNING GENETIC ALGORITHM DOCKING 6 of 100
Run: 6 Seed: 1835210203 482782040 [ Run 6 of 100 GA/GALS ]
Beginning LAMARCKIAN GENETIC ALGORITHM (LGA), with a maximum of 2500000 energy evaluations.

Final-Value: -16.123


	FINAL GENETIC ALGORITHM DOCKED STATE
	_______________________________________________


Detailed state:  trans 20.038 -9.567 -5.084 quatxyzw -0.561389 0.159638 0.571459 0.576882 center 1.619 0.086 0.013 ntor 9 -138.2780 -149.4120 65.4250 97.9670 -81.6556 -151.1132 -102.2709 121.7254 148.4299
State:	 20.038  -9.567  -5.084  -0.687  0.195  0.700 109.537   -138.28 -149.41   65.43   97.97  -81.66 -151.11 -102.27  121.73  148.43

DOCKED: MODEL        6
DOCKED: USER    Run = 6
DOCKED: USER    DPF = ligand_dock.biased.dpf
DOCKED: USER  
DOCKED: USER    Estimated Free Energy of Binding    =  -11.40 kcal/mol  [=(1)+(2)+(3)-(4)]
DOCKED: USER    Estimated Inhibition Constant, Ki   =    4.41 nM (nanomolar)  [Temperature = 298.15 K]
DOCKED: USER    
DOCKED: USER    (1) Final Intermolecular Energy     =  -14.08 kcal/mol
DOCKED: USER        vdW + Hbond + desolv Energy     =  -14.08 kcal/mol
DOCKED: USER        Electrostatic Energy            =   +0.00 kcal/mol
DOCKED: USER    (2) Final Total Internal Energy     =   -2.04 kcal/mol
DOCKED: USER    (3) Torsional Free Energy           =   +2.68 kcal/mol
DOCKED: USER    (4) Unbound System's Energy  [=(2)] =   -2.04 kcal/mol
DOCKED: USER    
DOCKED: USER    
DOCKED: USER    NEWDPF move ligand.pdbqt
DOCKED: USER    NEWDPF about 1.619000 0.086000 0.013000
DOCKED: USER    NEWDPF tran0 20.037925 -9.566785 -5.083983
DOCKED: USER    NEWDPF quaternion0 -0.561389 0.159638 0.571459 0.576882
DOCKED: USER    NEWDPF axisangle0 -0.687280 0.195437 0.699607 109.536933
DOCKED: USER    NEWDPF quat0 -0.687280 0.195437 0.699607 109.536933
DOCKED: USER    NEWDPF dihe0 -138.28 -149.41 65.43 97.97 -81.66 -151.11 -102.27 121.73 148.43 
DOCKED: USER  keepresnum = 1 
DOCKED: USER  
DOCKED: REMARK  Name = 
DOCKED: REMARK  11 active torsions:
DOCKED: REMARK  status: ('A' for Active; 'I' for Inactive)
DOCKED: REMARK    1  A    between atoms: C_2  and  O_3
DOCKED: REMARK    2  A    between atoms: O_3  and  C_4
DOCKED: REMARK    3  A    between atoms: C_4  and  C_5
DOCKED: REMARK    4  A    between atoms: C_10  and  C_11
DOCKED: REMARK    5  A    between atoms: C_11  and  N_12
DOCKED: REMARK    6  A    between atoms: N_12  and  C_13
DOCKED: REMARK    7  A    between atoms: N_12  and  C_15
DOCKED: REMARK    8  A    between atoms: C_13  and  C_14
DOCKED: REMARK    9  A    between atoms: C_15  and  C_16
DOCKED: REMARK   10  A    between atoms: N_21  and  C_22
DOCKED: REMARK   11  A    between atoms: C_25  and  C_26
DOCKED: REMARK                            x       y       z     vdW  Elec       q    Type
DOCKED: REMARK                         _______ _______ _______ _____ _____    ______ ____
DOCKED: USER                              x       y       z     vdW  Elec       q    Type
DOCKED: USER                           _______ _______ _______ _____ _____    ______ ____
DOCKED: ROOT
DOCKED: ATOM      1  C   UNL     1      21.925  -8.683  -6.266 -0.23 -0.00    +0.000 C 
DOCKED: ENDROOT
DOCKED: BRANCH   1   2
DOCKED: ATOM      2  C   UNL     1      21.372  -7.545  -5.456 -0.18 -0.00    +0.000 A 
DOCKED: ATOM      3  C   UNL     1      20.527  -6.594  -6.045 -0.08 -0.00    +0.000 A 
DOCKED: ATOM      4  C   UNL     1      20.029  -5.526  -5.291 -0.10 -0.00    +0.000 A 
DOCKED: ATOM      5  C   UNL     1      20.384  -5.389  -3.941 -0.19 -0.00    +0.000 A 
DOCKED: ATOM      6  C   UNL     1      19.897  -4.316  -3.179 -0.18 -0.00    +0.000 A 
DOCKED: ATOM      7  C   UNL     1      20.282  -4.163  -1.837 -0.31 -0.00    +0.000 A 
DOCKED: ATOM      8  C   UNL     1      21.126  -5.119  -1.249 -0.33 +0.00    +0.000 A 
DOCKED: ATOM      9  C   UNL     1      21.609  -6.196  -1.998 -0.39 -0.00    +0.000 A 
DOCKED: ATOM     10  C   UNL     1      21.248  -6.338  -3.345 -0.31 -0.00    +0.000 A 
DOCKED: ATOM     11  C   UNL     1      21.736  -7.411  -4.107 -0.25 -0.00    +0.000 A 
DOCKED: BRANCH   7  12
DOCKED: ATOM     12  C   UNL     1      19.746  -3.014  -1.022 -0.30 -0.00    +0.000 C 
DOCKED: BRANCH  12  13
DOCKED: ATOM     13  N   UNL     1      20.834  -2.333  -0.286 -0.30 -0.00    +0.000 N 
DOCKED: ATOM     14  H   UNL     1      20.545  -1.355  -0.335 +0.00 -0.00    +0.000 HD
DOCKED: BRANCH  13  15
DOCKED: ATOM     15  C   UNL     1      20.873  -2.637   1.160 -0.50 +0.00    +0.000 C 
DOCKED: ATOM     16  C   UNL     1      19.662  -2.110   1.933 -0.50 -0.00    +0.000 C 
DOCKED: ENDBRANCH  13  15
DOCKED: BRANCH  13  17
DOCKED: ATOM     17  C   UNL     1      22.159  -2.271  -0.955 -0.28 -0.00    +0.000 C 
DOCKED: ATOM     18  C   UNL     1      23.176  -1.338  -0.284 -0.29 -0.00    +0.000 C 
DOCKED: ENDBRANCH  13  17
DOCKED: ENDBRANCH  12  13
DOCKED: ENDBRANCH   7  12
DOCKED: ENDBRANCH   1   2
DOCKED: BRANCH   1  19
DOCKED: ATOM     19  O   UNL     1      21.213  -9.874  -5.948 -0.29 -0.00    +0.000 OA
DOCKED: BRANCH  19  21
DOCKED: ATOM     20  O   UNL     1      21.910 -11.398  -4.362 -0.55 -0.00    +0.000 OA
DOCKED: ATOM     21  C   UNL     1      21.178 -10.414  -4.659 -0.47 -0.00    +0.000 C 
DOCKED: ATOM     22  N   UNL     1      20.266  -9.864  -3.699 -0.35 -0.00    +0.000 N 
DOCKED: ATOM     23  H   UNL     1      19.631  -9.177  -4.008 -0.00 -0.00    +0.000 HD
DOCKED: BRANCH  22  24
DOCKED: ATOM     24  C   UNL     1      20.218 -10.247  -2.314 -0.45 -0.00    +0.000 A 
DOCKED: ATOM     25  C   UNL     1      21.325  -9.995  -1.492 -0.56 -0.00    +0.000 A 
DOCKED: ATOM     26  C   UNL     1      21.315 -10.380  -0.149 -0.63 -0.00    +0.000 A 
DOCKED: ATOM     27  C   UNL     1      20.202 -11.047   0.395 -0.59 -0.00    +0.000 A 
DOCKED: ATOM     28  C   UNL     1      19.095 -11.305  -0.434 -0.45 -0.00    +0.000 A 
DOCKED: ATOM     29  C   UNL     1      19.107 -10.918  -1.777 -0.39 -0.00    +0.000 A 
DOCKED: BRANCH  27  30
DOCKED: ATOM     30  C   UNL     1      20.174 -11.467   1.819 -0.76 -0.00    +0.000 C 
DOCKED: ATOM     31  N   UNL     1      20.638 -10.602   2.862 -0.63 -0.00    +0.000 N 
DOCKED: ATOM     32  O   UNL     1      20.505 -10.968   4.157 -1.02 -0.00    +0.000 OA
DOCKED: ATOM     33  O   UNL     1      19.746 -12.615   2.120 -1.62 -0.00    +0.000 OA
DOCKED: ATOM     34  H   UNL     1      21.054  -9.740   2.635 -0.59 -0.00    +0.000 HD
DOCKED: ENDBRANCH  27  30
DOCKED: ENDBRANCH  22  24
DOCKED: ENDBRANCH  19  21
DOCKED: ENDBRANCH   1  19
DOCKED: TORSDOF 9
DOCKED: TER
DOCKED: ENDMDL
________________________________________________________________________________


	BEGINNING GENETIC ALGORITHM DOCKING 7 of 100
Run: 7 Seed: 962149230 597590623 [ Run 7 of 100 GA/GALS ]
Beginning LAMARCKIAN GENETIC ALGORITHM (LGA), with a maximum of 2500000 energy evaluations.

Final-Value: -14.961


	FINAL GENETIC ALGORITHM DOCKED STATE
	_______________________________________________


Detailed state:  trans 18.750 -13.135 -0.436 quatxyzw 0.404406 -0.801119 0.354426 -0.262767 center 1.619 0.086 0.013 ntor 9 174.1929 -74.8433 106.0591 153.5578 -178.2085 90.9418 169.6105 80.2903 108.5619
State:	 18.750 -13.135  -0.436   0.419 -0.830  0.367 -149.531    174.19  -74.84  106.06  153.56 -178.21   90.94  169.61   80.29  108.56

DOCKED: MODEL        7
DOCKED: USER    Run = 7
DOCKED: USER    DPF = ligand_dock.biased.dpf
DOCKED: USER  
DOCKED: USER    Estimated Free Energy of Binding    =  -10.68 kcal/mol  [=(1)+(2)+(3)-(4)]
DOCKED: USER    Estimated Inhibition Constant, Ki   =   14.94 nM (nanomolar)  [Temperature = 298.15 K]
DOCKED: USER    
DOCKED: USER    (1) Final Intermolecular Energy     =  -13.36 kcal/mol
DOCKED: USER        vdW + Hbond + desolv Energy     =  -13.36 kcal/mol
DOCKED: USER        Electrostatic Energy            =   +0.00 kcal/mol
DOCKED: USER    (2) Final Total Internal Energy     =   -1.60 kcal/mol
DOCKED: USER    (3) Torsional Free Energy           =   +2.68 kcal/mol
DOCKED: USER    (4) Unbound System's Energy  [=(2)] =   -1.60 kcal/mol
DOCKED: USER    
DOCKED: USER    
DOCKED: USER    NEWDPF move ligand.pdbqt
DOCKED: USER    NEWDPF about 1.619000 0.086000 0.013000
DOCKED: USER    NEWDPF tran0 18.749981 -13.135044 -0.435590
DOCKED: USER    NEWDPF quaternion0 0.404406 -0.801119 0.354426 -0.262767
DOCKED: USER    NEWDPF axisangle0 0.419134 -0.830296 0.367334 -149.531385
DOCKED: USER    NEWDPF quat0 0.419134 -0.830296 0.367334 -149.531385
DOCKED: USER    NEWDPF dihe0 174.19 -74.84 106.06 153.56 -178.21 90.94 169.61 80.29 108.56 
DOCKED: USER  keepresnum = 1 
DOCKED: USER  
DOCKED: REMARK  Name = 
DOCKED: REMARK  11 active torsions:
DOCKED: REMARK  status: ('A' for Active; 'I' for Inactive)
DOCKED: REMARK    1  A    between atoms: C_2  and  O_3
DOCKED: REMARK    2  A    between atoms: O_3  and  C_4
DOCKED: REMARK    3  A    between atoms: C_4  and  C_5
DOCKED: REMARK    4  A    between atoms: C_10  and  C_11
DOCKED: REMARK    5  A    between atoms: C_11  and  N_12
DOCKED: REMARK    6  A    between atoms: N_12  and  C_13
DOCKED: REMARK    7  A    between atoms: N_12  and  C_15
DOCKED: REMARK    8  A    between atoms: C_13  and  C_14
DOCKED: REMARK    9  A    between atoms: C_15  and  C_16
DOCKED: REMARK   10  A    between atoms: N_21  and  C_22
DOCKED: REMARK   11  A    between atoms: C_25  and  C_26
DOCKED: REMARK                            x       y       z     vdW  Elec       q    Type
DOCKED: REMARK                         _______ _______ _______ _____ _____    ______ ____
DOCKED: USER                              x       y       z     vdW  Elec       q    Type
DOCKED: USER                           _______ _______ _______ _____ _____    ______ ____
DOCKED: ROOT
DOCKED: ATOM      1  C   UNL     1      19.146 -11.607   1.366 -0.65 -0.00    +0.000 C 
DOCKED: ENDROOT
DOCKED: BRANCH   1   2
DOCKED: ATOM      2  C   UNL     1      19.846 -11.029   0.170 -0.55 -0.00    +0.000 A 
DOCKED: ATOM      3  C   UNL     1      21.120 -10.456   0.296 -0.60 -0.00    +0.000 A 
DOCKED: ATOM      4  C   UNL     1      21.760  -9.902  -0.817 -0.44 -0.00    +0.000 A 
DOCKED: ATOM      5  C   UNL     1      21.127  -9.902  -2.068 -0.52 -0.00    +0.000 A 
DOCKED: ATOM      6  C   UNL     1      21.758  -9.340  -3.189 -0.28 -0.00    +0.000 A 
DOCKED: ATOM      7  C   UNL     1      21.106  -9.311  -4.433 -0.33 -0.00    +0.000 A 
DOCKED: ATOM      8  C   UNL     1      19.832  -9.888  -4.557 -0.29 -0.00    +0.000 A 
DOCKED: ATOM      9  C   UNL     1      19.199 -10.457  -3.448 -0.35 -0.00    +0.000 A 
DOCKED: ATOM     10  C   UNL     1      19.836 -10.465  -2.199 -0.42 -0.00    +0.000 A 
DOCKED: ATOM     11  C   UNL     1      19.204 -11.026  -1.078 -0.41 -0.00    +0.000 A 
DOCKED: BRANCH   7  12
DOCKED: ATOM     12  C   UNL     1      21.796  -8.716  -5.634 -0.27 -0.00    +0.000 C 
DOCKED: BRANCH  12  13
DOCKED: ATOM     13  N   UNL     1      21.717  -9.629  -6.796 -0.23 -0.00    +0.000 N 
DOCKED: ATOM     14  H   UNL     1      22.463  -9.275  -7.397 +0.00 -0.00    +0.000 HD
DOCKED: BRANCH  13  15
DOCKED: ATOM     15  C   UNL     1      22.108 -11.024  -6.502 -0.45 -0.00    +0.000 C 
DOCKED: ATOM     16  C   UNL     1      23.388 -11.468  -7.214 -0.48 -0.00    +0.000 C 
DOCKED: ENDBRANCH  13  15
DOCKED: BRANCH  13  17
DOCKED: ATOM     17  C   UNL     1      20.539  -9.478  -7.688 -0.18 -0.00    +0.000 C 
DOCKED: ATOM     18  C   UNL     1      19.610 -10.699  -7.741 -0.25 -0.00    +0.000 C 
DOCKED: ENDBRANCH  13  17
DOCKED: ENDBRANCH  12  13
DOCKED: ENDBRANCH   7  12
DOCKED: ENDBRANCH   1   2
DOCKED: BRANCH   1  19
DOCKED: ATOM     19  O   UNL     1      18.418 -12.764   0.970 -0.76 -0.00    +0.000 OA
DOCKED: BRANCH  19  21
DOCKED: ATOM     20  O   UNL     1      16.465 -13.754   0.243 -1.14 +0.00    +0.000 OA
DOCKED: ATOM     21  C   UNL     1      17.035 -12.755   0.762 -0.43 +0.00    +0.000 C 
DOCKED: ATOM     22  N   UNL     1      16.288 -11.580   1.104 -0.39 +0.00    +0.000 N 
DOCKED: ATOM     23  H   UNL     1      16.790 -10.784   1.394 -0.00 +0.00    +0.000 HD
DOCKED: BRANCH  22  24
DOCKED: ATOM     24  C   UNL     1      14.855 -11.487   1.053 -0.37 +0.00    +0.000 A 
DOCKED: ATOM     25  C   UNL     1      14.186 -11.814  -0.136 -0.39 +0.00    +0.000 A 
DOCKED: ATOM     26  C   UNL     1      12.796 -11.708  -0.223 -0.24 +0.00    +0.000 A 
DOCKED: ATOM     27  C   UNL     1      12.045 -11.249   0.876 -0.36 +0.00    +0.000 A 
DOCKED: ATOM     28  C   UNL     1      12.719 -10.914   2.065 -0.27 +0.00    +0.000 A 
DOCKED: ATOM     29  C   UNL     1      14.110 -11.022   2.149 -0.36 +0.00    +0.000 A 
DOCKED: BRANCH  27  30
DOCKED: ATOM     30  C   UNL     1      10.567 -11.126   0.803 -0.35 +0.00    +0.000 C 
DOCKED: ATOM     31  N   UNL     1       9.712 -12.250   1.039 -0.40 +0.00    +0.000 N 
DOCKED: ATOM     32  O   UNL     1       8.370 -12.088   1.068 -0.40 -0.00    +0.000 OA
DOCKED: ATOM     33  O   UNL     1      10.050 -10.013   0.513 -0.18 +0.00    +0.000 OA
DOCKED: ATOM     34  H   UNL     1      10.103 -13.142   1.180 -0.62 -0.00    +0.000 HD
DOCKED: ENDBRANCH  27  30
DOCKED: ENDBRANCH  22  24
DOCKED: ENDBRANCH  19  21
DOCKED: ENDBRANCH   1  19
DOCKED: TORSDOF 9
DOCKED: TER
DOCKED: ENDMDL
________________________________________________________________________________


	BEGINNING GENETIC ALGORITHM DOCKING 8 of 100
Run: 8 Seed: 1661095491 389301356 [ Run 8 of 100 GA/GALS ]
Beginning LAMARCKIAN GENETIC ALGORITHM (LGA), with a maximum of 2500000 energy evaluations.

Final-Value: -15.165


	FINAL GENETIC ALGORITHM DOCKED STATE
	_______________________________________________


Detailed state:  trans 18.560 -11.670 0.814 quatxyzw 0.264306 -0.718875 -0.101372 -0.634889 center 1.619 0.086 0.013 ntor 9 -137.1670 -70.0311 177.3447 163.3691 171.4839 11.7459 -28.1758 95.6575 28.7257
State:	 18.560 -11.670   0.814   0.342 -0.930 -0.131 -101.176   -137.17  -70.03  177.34  163.37  171.48   11.75  -28.18   95.66   28.73

DOCKED: MODEL        8
DOCKED: USER    Run = 8
DOCKED: USER    DPF = ligand_dock.biased.dpf
DOCKED: USER  
DOCKED: USER    Estimated Free Energy of Binding    =  -10.79 kcal/mol  [=(1)+(2)+(3)-(4)]
DOCKED: USER    Estimated Inhibition Constant, Ki   =   12.42 nM (nanomolar)  [Temperature = 298.15 K]
DOCKED: USER    
DOCKED: USER    (1) Final Intermolecular Energy     =  -13.47 kcal/mol
DOCKED: USER        vdW + Hbond + desolv Energy     =  -13.47 kcal/mol
DOCKED: USER        Electrostatic Energy            =   +0.00 kcal/mol
DOCKED: USER    (2) Final Total Internal Energy     =   -1.70 kcal/mol
DOCKED: USER    (3) Torsional Free Energy           =   +2.68 kcal/mol
DOCKED: USER    (4) Unbound System's Energy  [=(2)] =   -1.70 kcal/mol
DOCKED: USER    
DOCKED: USER    
DOCKED: USER    NEWDPF move ligand.pdbqt
DOCKED: USER    NEWDPF about 1.619000 0.086000 0.013000
DOCKED: USER    NEWDPF tran0 18.559779 -11.669937 0.813570
DOCKED: USER    NEWDPF quaternion0 0.264306 -0.718875 -0.101372 -0.634889
DOCKED: USER    NEWDPF axisangle0 0.342099 -0.930458 -0.131208 -101.176432
DOCKED: USER    NEWDPF quat0 0.342099 -0.930458 -0.131208 -101.176432
DOCKED: USER    NEWDPF dihe0 -137.17 -70.03 177.34 163.37 171.48 11.75 -28.18 95.66 28.73 
DOCKED: USER  keepresnum = 1 
DOCKED: USER  
DOCKED: REMARK  Name = 
DOCKED: REMARK  11 active torsions:
DOCKED: REMARK  status: ('A' for Active; 'I' for Inactive)
DOCKED: REMARK    1  A    between atoms: C_2  and  O_3
DOCKED: REMARK    2  A    between atoms: O_3  and  C_4
DOCKED: REMARK    3  A    between atoms: C_4  and  C_5
DOCKED: REMARK    4  A    between atoms: C_10  and  C_11
DOCKED: REMARK    5  A    between atoms: C_11  and  N_12
DOCKED: REMARK    6  A    between atoms: N_12  and  C_13
DOCKED: REMARK    7  A    between atoms: N_12  and  C_15
DOCKED: REMARK    8  A    between atoms: C_13  and  C_14
DOCKED: REMARK    9  A    between atoms: C_15  and  C_16
DOCKED: REMARK   10  A    between atoms: N_21  and  C_22
DOCKED: REMARK   11  A    between atoms: C_25  and  C_26
DOCKED: REMARK                            x       y       z     vdW  Elec       q    Type
DOCKED: REMARK                         _______ _______ _______ _____ _____    ______ ____
DOCKED: USER                              x       y       z     vdW  Elec       q    Type
DOCKED: USER                           _______ _______ _______ _____ _____    ______ ____
DOCKED: ROOT
DOCKED: ATOM      1  C   UNL     1      20.889 -11.680   1.371 -0.67 -0.00    +0.000 C 
DOCKED: ENDROOT
DOCKED: BRANCH   1   2
DOCKED: ATOM      2  C   UNL     1      20.770 -10.887   0.101 -0.60 -0.00    +0.000 A 
DOCKED: ATOM      3  C   UNL     1      21.558  -9.745  -0.104 -0.57 -0.00    +0.000 A 
DOCKED: ATOM      4  C   UNL     1      21.430  -8.999  -1.281 -0.47 -0.00    +0.000 A 
DOCKED: ATOM      5  C   UNL     1      20.501  -9.379  -2.260 -0.42 -0.00    +0.000 A 
DOCKED: ATOM      6  C   UNL     1      20.360  -8.632  -3.439 -0.32 -0.00    +0.000 A 
DOCKED: ATOM      7  C   UNL     1      19.405  -8.995  -4.402 -0.22 -0.00    +0.000 A 
DOCKED: ATOM      8  C   UNL     1      18.619 -10.141  -4.196 -0.28 -0.00    +0.000 A 
DOCKED: ATOM      9  C   UNL     1      18.759 -10.897  -3.028 -0.26 -0.00    +0.000 A 
DOCKED: ATOM     10  C   UNL     1      19.693 -10.522  -2.052 -0.42 -0.00    +0.000 A 
DOCKED: ATOM     11  C   UNL     1      19.834 -11.269  -0.873 -0.30 -0.00    +0.000 A 
DOCKED: BRANCH   7  12
DOCKED: ATOM     12  C   UNL     1      19.266  -8.194  -5.672 -0.15 -0.00    +0.000 C 
DOCKED: BRANCH  12  13
DOCKED: ATOM     13  N   UNL     1      19.506  -9.039  -6.861 -0.12 -0.00    +0.000 N 
DOCKED: ATOM     14  H   UNL     1      19.864  -8.363  -7.537 +0.00 -0.00    +0.000 HD
DOCKED: BRANCH  13  15
DOCKED: ATOM     15  C   UNL     1      20.602 -10.019  -6.701 -0.27 -0.00    +0.000 C 
DOCKED: ATOM     16  C   UNL     1      21.980  -9.377  -6.523 -0.27 -0.00    +0.000 C 
DOCKED: ENDBRANCH  13  15
DOCKED: BRANCH  13  17
DOCKED: ATOM     17  C   UNL     1      18.307  -9.546  -7.577 -0.17 -0.00    +0.000 C 
DOCKED: ATOM     18  C   UNL     1      18.087 -11.062  -7.474 -0.33 -0.00    +0.000 C 
DOCKED: ENDBRANCH  13  17
DOCKED: ENDBRANCH  12  13
DOCKED: ENDBRANCH   7  12
DOCKED: ENDBRANCH   1   2
DOCKED: BRANCH   1  19
DOCKED: ATOM     19  O   UNL     1      19.588 -12.025   1.833 -1.64 -0.00    +0.000 OA
DOCKED: BRANCH  19  21
DOCKED: ATOM     20  O   UNL     1      19.392 -10.351   3.408 -0.66 -0.00    +0.000 OA
DOCKED: ATOM     21  C   UNL     1      18.825 -11.181   2.645 -0.61 -0.00    +0.000 C 
DOCKED: ATOM     22  N   UNL     1      17.396 -11.307   2.631 -0.40 +0.00    +0.000 N 
DOCKED: ATOM     23  H   UNL     1      17.004 -12.046   2.112 -0.01 +0.00    +0.000 HD
DOCKED: BRANCH  22  24
DOCKED: ATOM     24  C   UNL     1      16.498 -10.424   3.324 -0.43 +0.00    +0.000 A 
DOCKED: ATOM     25  C   UNL     1      15.454 -10.966   4.088 -0.47 +0.00    +0.000 A 
DOCKED: ATOM     26  C   UNL     1      14.550 -10.132   4.750 -0.33 +0.00    +0.000 A 
DOCKED: ATOM     27  C   UNL     1      14.660  -8.733   4.644 -0.34 +0.00    +0.000 A 
DOCKED: ATOM     28  C   UNL     1      15.704  -8.192   3.872 -0.28 +0.00    +0.000 A 
DOCKED: ATOM     29  C   UNL     1      16.607  -9.029   3.210 -0.25 +0.00    +0.000 A 
DOCKED: BRANCH  27  30
DOCKED: ATOM     30  C   UNL     1      13.708  -7.829   5.338 -0.43 +0.00    +0.000 C 
DOCKED: ATOM     31  N   UNL     1      14.071  -6.489   5.688 -0.43 +0.00    +0.000 N 
DOCKED: ATOM     32  O   UNL     1      13.152  -5.655   6.226 -0.93 +0.00    +0.000 OA
DOCKED: ATOM     33  O   UNL     1      12.559  -8.252   5.640 -0.41 +0.00    +0.000 OA
DOCKED: ATOM     34  H   UNL     1      14.991  -6.175   5.537 -0.03 +0.00    +0.000 HD
DOCKED: ENDBRANCH  27  30
DOCKED: ENDBRANCH  22  24
DOCKED: ENDBRANCH  19  21
DOCKED: ENDBRANCH   1  19
DOCKED: TORSDOF 9
DOCKED: TER
DOCKED: ENDMDL
________________________________________________________________________________


	BEGINNING GENETIC ALGORITHM DOCKING 9 of 100
Run: 9 Seed: 869357912 153333424 [ Run 9 of 100 GA/GALS ]
Beginning LAMARCKIAN GENETIC ALGORITHM (LGA), with a maximum of 2500000 energy evaluations.

Final-Value: -15.411


	FINAL GENETIC ALGORITHM DOCKED STATE
	_______________________________________________


Detailed state:  trans 20.652 -9.363 -4.429 quatxyzw 0.374700 0.245485 0.159502 -0.879713 center 1.619 0.086 0.013 ntor 9 173.9764 -153.1908 91.5524 -168.0765 137.5860 59.2306 -94.5678 151.6547 -180.0000
State:	 20.652  -9.363  -4.429   0.788  0.516  0.335 -56.784    173.98 -153.19   91.55 -168.08  137.59   59.23  -94.57  151.65 -180.00

DOCKED: MODEL        9
DOCKED: USER    Run = 9
DOCKED: USER    DPF = ligand_dock.biased.dpf
DOCKED: USER  
DOCKED: USER    Estimated Free Energy of Binding    =  -10.18 kcal/mol  [=(1)+(2)+(3)-(4)]
DOCKED: USER    Estimated Inhibition Constant, Ki   =   34.34 nM (nanomolar)  [Temperature = 298.15 K]
DOCKED: USER    
DOCKED: USER    (1) Final Intermolecular Energy     =  -12.87 kcal/mol
DOCKED: USER        vdW + Hbond + desolv Energy     =  -12.87 kcal/mol
DOCKED: USER        Electrostatic Energy            =   +0.00 kcal/mol
DOCKED: USER    (2) Final Total Internal Energy     =   -2.54 kcal/mol
DOCKED: USER    (3) Torsional Free Energy           =   +2.68 kcal/mol
DOCKED: USER    (4) Unbound System's Energy  [=(2)] =   -2.54 kcal/mol
DOCKED: USER    
DOCKED: USER    
DOCKED: USER    NEWDPF move ligand.pdbqt
DOCKED: USER    NEWDPF about 1.619000 0.086000 0.013000
DOCKED: USER    NEWDPF tran0 20.651909 -9.363296 -4.428552
DOCKED: USER    NEWDPF quaternion0 0.374700 0.245485 0.159502 -0.879713
DOCKED: USER    NEWDPF axisangle0 0.788007 0.516263 0.335438 -56.784368
DOCKED: USER    NEWDPF quat0 0.788007 0.516263 0.335438 -56.784368
DOCKED: USER    NEWDPF dihe0 173.98 -153.19 91.55 -168.08 137.59 59.23 -94.57 151.65 -180.00 
DOCKED: USER  keepresnum = 1 
DOCKED: USER  
DOCKED: REMARK  Name = 
DOCKED: REMARK  11 active torsions:
DOCKED: REMARK  status: ('A' for Active; 'I' for Inactive)
DOCKED: REMARK    1  A    between atoms: C_2  and  O_3
DOCKED: REMARK    2  A    between atoms: O_3  and  C_4
DOCKED: REMARK    3  A    between atoms: C_4  and  C_5
DOCKED: REMARK    4  A    between atoms: C_10  and  C_11
DOCKED: REMARK    5  A    between atoms: C_11  and  N_12
DOCKED: REMARK    6  A    between atoms: N_12  and  C_13
DOCKED: REMARK    7  A    between atoms: N_12  and  C_15
DOCKED: REMARK    8  A    between atoms: C_13  and  C_14
DOCKED: REMARK    9  A    between atoms: C_15  and  C_16
DOCKED: REMARK   10  A    between atoms: N_21  and  C_22
DOCKED: REMARK   11  A    between atoms: C_25  and  C_26
DOCKED: REMARK                            x       y       z     vdW  Elec       q    Type
DOCKED: REMARK                         _______ _______ _______ _____ _____    ______ ____
DOCKED: USER                              x       y       z     vdW  Elec       q    Type
DOCKED: USER                           _______ _______ _______ _____ _____    ______ ____
DOCKED: ROOT
DOCKED: ATOM      1  C   UNL     1      19.686  -8.052  -6.185 -0.12 -0.00    +0.000 C 
DOCKED: ENDROOT
DOCKED: BRANCH   1   2
DOCKED: ATOM      2  C   UNL     1      18.547  -8.794  -5.547 -0.14 -0.00    +0.000 A 
DOCKED: ATOM      3  C   UNL     1      18.456 -10.190  -5.652 -0.25 -0.00    +0.000 A 
DOCKED: ATOM      4  C   UNL     1      17.384 -10.875  -5.071 -0.20 -0.00    +0.000 A 
DOCKED: ATOM      5  C   UNL     1      16.381 -10.169  -4.390 -0.21 -0.00    +0.000 A 
DOCKED: ATOM      6  C   UNL     1      15.297 -10.847  -3.812 -0.21 -0.00    +0.000 A 
DOCKED: ATOM      7  C   UNL     1      14.277 -10.134  -3.162 -0.23 -0.00    +0.000 A 
DOCKED: ATOM      8  C   UNL     1      14.372  -8.737  -3.055 -0.16 -0.00    +0.000 A 
DOCKED: ATOM      9  C   UNL     1      15.453  -8.054  -3.621 -0.10 -0.00    +0.000 A 
DOCKED: ATOM     10  C   UNL     1      16.460  -8.760  -4.294 -0.16 -0.00    +0.000 A 
DOCKED: ATOM     11  C   UNL     1      17.543  -8.082  -4.872 -0.13 -0.00    +0.000 A 
DOCKED: BRANCH   7  12
DOCKED: ATOM     12  C   UNL     1      13.121 -10.871  -2.534 -0.15 -0.00    +0.000 C 
DOCKED: BRANCH  12  13
DOCKED: ATOM     13  N   UNL     1      13.445 -11.286  -1.151 -0.33 +0.00    +0.000 N 
DOCKED: ATOM     14  H   UNL     1      13.306 -12.296  -1.193 -0.03 +0.00    +0.000 HD
DOCKED: BRANCH  13  15
DOCKED: ATOM     15  C   UNL     1      14.868 -11.122  -0.784 -0.35 +0.00    +0.000 C 
DOCKED: ATOM     16  C   UNL     1      15.594 -12.445  -0.528 -0.49 +0.00    +0.000 C 
DOCKED: ENDBRANCH  13  15
DOCKED: BRANCH  13  17
DOCKED: ATOM     17  C   UNL     1      12.473 -10.909  -0.093 -0.33 +0.00    +0.000 C 
DOCKED: ATOM     18  C   UNL     1      12.654 -11.646   1.241 -0.45 +0.00    +0.000 C 
DOCKED: ENDBRANCH  13  17
DOCKED: ENDBRANCH  12  13
DOCKED: ENDBRANCH   7  12
DOCKED: ENDBRANCH   1   2
DOCKED: BRANCH   1  19
DOCKED: ATOM     19  O   UNL     1      20.879  -8.302  -5.450 -0.20 -0.00    +0.000 OA
DOCKED: BRANCH  19  21
DOCKED: ATOM     20  O   UNL     1      21.054  -7.612  -3.256 -0.40 -0.00    +0.000 OA
DOCKED: ATOM     21  C   UNL     1      20.883  -8.556  -4.076 -0.35 -0.00    +0.000 C 
DOCKED: ATOM     22  N   UNL     1      20.736  -9.907  -3.617 -0.41 -0.00    +0.000 N 
DOCKED: ATOM     23  H   UNL     1      20.725 -10.623  -4.293 -0.01 -0.00    +0.000 HD
DOCKED: BRANCH  22  24
DOCKED: ATOM     24  C   UNL     1      20.603 -10.285  -2.237 -0.49 -0.00    +0.000 A 
DOCKED: ATOM     25  C   UNL     1      21.756 -10.481  -1.463 -0.40 -0.00    +0.000 A 
DOCKED: ATOM     26  C   UNL     1      21.657 -10.875  -0.126 -0.45 -0.00    +0.000 A 
DOCKED: ATOM     27  C   UNL     1      20.398 -11.101   0.460 -0.60 -0.00    +0.000 A 
DOCKED: ATOM     28  C   UNL     1      19.243 -10.910  -0.320 -0.46 -0.00    +0.000 A 
DOCKED: ATOM     29  C   UNL     1      19.345 -10.516  -1.658 -0.39 -0.00    +0.000 A 
DOCKED: BRANCH  27  30
DOCKED: ATOM     30  C   UNL     1      20.272 -11.522   1.878 -0.78 -0.00    +0.000 C 
DOCKED: ATOM     31  N   UNL     1      20.591 -10.632   2.953 -0.64 -0.00    +0.000 N 
DOCKED: ATOM     32  O   UNL     1      20.370 -11.005   4.234 -1.01 -0.00    +0.000 OA
DOCKED: ATOM     33  O   UNL     1      19.888 -12.693   2.147 -1.63 -0.00    +0.000 OA
DOCKED: ATOM     34  H   UNL     1      20.974  -9.746   2.758 -0.60 -0.00    +0.000 HD
DOCKED: ENDBRANCH  27  30
DOCKED: ENDBRANCH  22  24
DOCKED: ENDBRANCH  19  21
DOCKED: ENDBRANCH   1  19
DOCKED: TORSDOF 9
DOCKED: TER
DOCKED: ENDMDL
________________________________________________________________________________


	BEGINNING GENETIC ALGORITHM DOCKING 10 of 100
Run: 10 Seed: 1054104181 1866640663 [ Run 10 of 100 GA/GALS ]
Beginning LAMARCKIAN GENETIC ALGORITHM (LGA), with a maximum of 2500000 energy evaluations.

Final-Value: -15.281


	FINAL GENETIC ALGORITHM DOCKED STATE
	_______________________________________________


Detailed state:  trans 23.078 -9.808 -5.985 quatxyzw 0.527896 0.081183 0.790430 -0.299928 center 1.619 0.086 0.013 ntor 9 -114.9536 160.4944 66.7378 -1.5639 168.1968 -96.5115 66.3992 79.4512 68.3732
State:	 23.078  -9.808  -5.985   0.553  0.085  0.829 -145.093   -114.95  160.49   66.74   -1.56  168.20  -96.51   66.40   79.45   68.37

DOCKED: MODEL       10
DOCKED: USER    Run = 10
DOCKED: USER    DPF = ligand_dock.biased.dpf
DOCKED: USER  
DOCKED: USER    Estimated Free Energy of Binding    =  -11.00 kcal/mol  [=(1)+(2)+(3)-(4)]
DOCKED: USER    Estimated Inhibition Constant, Ki   =    8.69 nM (nanomolar)  [Temperature = 298.15 K]
DOCKED: USER    
DOCKED: USER    (1) Final Intermolecular Energy     =  -13.68 kcal/mol
DOCKED: USER        vdW + Hbond + desolv Energy     =  -13.68 kcal/mol
DOCKED: USER        Electrostatic Energy            =   +0.00 kcal/mol
DOCKED: USER    (2) Final Total Internal Energy     =   -1.60 kcal/mol
DOCKED: USER    (3) Torsional Free Energy           =   +2.68 kcal/mol
DOCKED: USER    (4) Unbound System's Energy  [=(2)] =   -1.60 kcal/mol
DOCKED: USER    
DOCKED: USER    
DOCKED: USER    NEWDPF move ligand.pdbqt
DOCKED: USER    NEWDPF about 1.619000 0.086000 0.013000
DOCKED: USER    NEWDPF tran0 23.077826 -9.807948 -5.985323
DOCKED: USER    NEWDPF quaternion0 0.527896 0.081183 0.790430 -0.299928
DOCKED: USER    NEWDPF axisangle0 0.553372 0.085101 0.828576 -145.093487
DOCKED: USER    NEWDPF quat0 0.553372 0.085101 0.828576 -145.093487
DOCKED: USER    NEWDPF dihe0 -114.95 160.49 66.74 -1.56 168.20 -96.51 66.40 79.45 68.37 
DOCKED: USER  keepresnum = 1 
DOCKED: USER  
DOCKED: REMARK  Name = 
DOCKED: REMARK  11 active torsions:
DOCKED: REMARK  status: ('A' for Active; 'I' for Inactive)
DOCKED: REMARK    1  A    between atoms: C_2  and  O_3
DOCKED: REMARK    2  A    between atoms: O_3  and  C_4
DOCKED: REMARK    3  A    between atoms: C_4  and  C_5
DOCKED: REMARK    4  A    between atoms: C_10  and  C_11
DOCKED: REMARK    5  A    between atoms: C_11  and  N_12
DOCKED: REMARK    6  A    between atoms: N_12  and  C_13
DOCKED: REMARK    7  A    between atoms: N_12  and  C_15
DOCKED: REMARK    8  A    between atoms: C_13  and  C_14
DOCKED: REMARK    9  A    between atoms: C_15  and  C_16
DOCKED: REMARK   10  A    between atoms: N_21  and  C_22
DOCKED: REMARK   11  A    between atoms: C_25  and  C_26
DOCKED: REMARK                            x       y       z     vdW  Elec       q    Type
DOCKED: REMARK                         _______ _______ _______ _____ _____    ______ ____
DOCKED: USER                              x       y       z     vdW  Elec       q    Type
DOCKED: USER                           _______ _______ _______ _____ _____    ______ ____
DOCKED: ROOT
DOCKED: ATOM      1  C   UNL     1      21.038  -8.903  -6.857 -0.17 -0.00    +0.000 C 
DOCKED: ENDROOT
DOCKED: BRANCH   1   2
DOCKED: ATOM      2  C   UNL     1      21.560  -9.839  -7.909 -0.19 -0.00    +0.000 A 
DOCKED: ATOM      3  C   UNL     1      20.874 -10.005  -9.121 -0.16 -0.00    +0.000 A 
DOCKED: ATOM      4  C   UNL     1      21.353 -10.891 -10.090 -0.09 -0.00    +0.000 A 
DOCKED: ATOM      5  C   UNL     1      22.518 -11.635  -9.853 -0.23 -0.00    +0.000 A 
DOCKED: ATOM      6  C   UNL     1      23.002 -12.534 -10.816 -0.23 -0.00    +0.000 A 
DOCKED: ATOM      7  C   UNL     1      24.149 -13.302 -10.560 -0.30 -0.00    +0.000 A 
DOCKED: ATOM      8  C   UNL     1      24.836 -13.132  -9.347 -0.24 -0.00    +0.000 A 
DOCKED: ATOM      9  C   UNL     1      24.366 -12.233  -8.385 -0.42 -0.00    +0.000 A 
DOCKED: ATOM     10  C   UNL     1      23.206 -11.483  -8.626 -0.32 -0.00    +0.000 A 
DOCKED: ATOM     11  C   UNL     1      22.723 -10.585  -7.662 -0.29 -0.00    +0.000 A 
DOCKED: BRANCH   7  12
DOCKED: ATOM     12  C   UNL     1      24.669 -14.257 -11.604 -0.29 -0.00    +0.000 C 
DOCKED: BRANCH  12  13
DOCKED: ATOM     13  N   UNL     1      26.023 -13.867 -12.052 -0.17 -0.00    +0.000 N 
DOCKED: ATOM     14  H   UNL     1      26.483 -13.637 -11.170 -0.56 -0.00    +0.000 HD
DOCKED: BRANCH  13  15
DOCKED: ATOM     15  C   UNL     1      26.824 -14.978 -12.609 -0.24 -0.00    +0.000 C 
DOCKED: ATOM     16  C   UNL     1      26.717 -16.277 -11.806 -0.38 -0.00    +0.000 C 
DOCKED: ENDBRANCH  13  15
DOCKED: BRANCH  13  17
DOCKED: ATOM     17  C   UNL     1      26.144 -12.577 -12.779 -0.13 -0.00    +0.000 C 
DOCKED: ATOM     18  C   UNL     1      27.044 -11.536 -12.099 -0.17 -0.00    +0.000 C 
DOCKED: ENDBRANCH  13  17
DOCKED: ENDBRANCH  12  13
DOCKED: ENDBRANCH   7  12
DOCKED: ENDBRANCH   1   2
DOCKED: BRANCH   1  19
DOCKED: ATOM     19  O   UNL     1      21.866  -8.987  -5.702 -0.29 -0.00    +0.000 OA
DOCKED: BRANCH  19  21
DOCKED: ATOM     20  O   UNL     1      21.399 -10.951  -4.587 -0.53 -0.00    +0.000 OA
DOCKED: ATOM     21  C   UNL     1      21.496  -9.694  -4.554 -0.41 -0.00    +0.000 C 
DOCKED: ATOM     22  N   UNL     1      21.183  -8.966  -3.359 -0.40 -0.00    +0.000 N 
DOCKED: ATOM     23  H   UNL     1      21.157  -7.983  -3.412 -0.02 -0.00    +0.000 HD
DOCKED: BRANCH  22  24
DOCKED: ATOM     24  C   UNL     1      20.907  -9.576  -2.087 -0.50 -0.00    +0.000 A 
DOCKED: ATOM     25  C   UNL     1      21.743  -9.299  -0.995 -0.25 -0.00    +0.000 A 
DOCKED: ATOM     26  C   UNL     1      21.514  -9.899   0.246 -0.50 -0.00    +0.000 A 
DOCKED: ATOM     27  C   UNL     1      20.453 -10.808   0.414 -0.61 -0.00    +0.000 A 
DOCKED: ATOM     28  C   UNL     1      19.620 -11.089  -0.684 -0.44 -0.00    +0.000 A 
DOCKED: ATOM     29  C   UNL     1      19.851 -10.488  -1.924 -0.43 -0.00    +0.000 A 
DOCKED: BRANCH  27  30
DOCKED: ATOM     30  C   UNL     1      20.194 -11.457   1.724 -0.76 -0.00    +0.000 C 
DOCKED: ATOM     31  N   UNL     1      20.224 -10.712   2.947 -0.68 -0.00    +0.000 N 
DOCKED: ATOM     32  O   UNL     1      19.884 -11.305   4.113 -1.07 -0.00    +0.000 OA
DOCKED: ATOM     33  O   UNL     1      19.956 -12.696   1.768 -1.62 -0.00    +0.000 OA
DOCKED: ATOM     34  H   UNL     1      20.493  -9.766   2.937 -0.57 -0.00    +0.000 HD
DOCKED: ENDBRANCH  27  30
DOCKED: ENDBRANCH  22  24
DOCKED: ENDBRANCH  19  21
DOCKED: ENDBRANCH   1  19
DOCKED: TORSDOF 9
DOCKED: TER
DOCKED: ENDMDL
________________________________________________________________________________


	BEGINNING GENETIC ALGORITHM DOCKING 11 of 100
Run: 11 Seed: 1458881204 418694950 [ Run 11 of 100 GA/GALS ]
Beginning LAMARCKIAN GENETIC ALGORITHM (LGA), with a maximum of 2500000 energy evaluations.

Final-Value: -15.710


	FINAL GENETIC ALGORITHM DOCKED STATE
	_______________________________________________


Detailed state:  trans 21.239 -10.436 -4.887 quatxyzw -0.327817 -0.203754 -0.069384 0.919895 center 1.619 0.086 0.013 ntor 9 141.7039 -68.3677 90.3326 -132.9857 120.3209 -160.1468 121.9242 -179.4840 172.2142
State:	 21.239 -10.436  -4.887  -0.836 -0.520 -0.177 46.179    141.70  -68.37   90.33 -132.99  120.32 -160.15  121.92 -179.48  172.21

DOCKED: MODEL       11
DOCKED: USER    Run = 11
DOCKED: USER    DPF = ligand_dock.biased.dpf
DOCKED: USER  
DOCKED: USER    Estimated Free Energy of Binding    =  -10.51 kcal/mol  [=(1)+(2)+(3)-(4)]
DOCKED: USER    Estimated Inhibition Constant, Ki   =   19.89 nM (nanomolar)  [Temperature = 298.15 K]
DOCKED: USER    
DOCKED: USER    (1) Final Intermolecular Energy     =  -13.19 kcal/mol
DOCKED: USER        vdW + Hbond + desolv Energy     =  -13.19 kcal/mol
DOCKED: USER        Electrostatic Energy            =   +0.00 kcal/mol
DOCKED: USER    (2) Final Total Internal Energy     =   -2.52 kcal/mol
DOCKED: USER    (3) Torsional Free Energy           =   +2.68 kcal/mol
DOCKED: USER    (4) Unbound System's Energy  [=(2)] =   -2.52 kcal/mol
DOCKED: USER    
DOCKED: USER    
DOCKED: USER    NEWDPF move ligand.pdbqt
DOCKED: USER    NEWDPF about 1.619000 0.086000 0.013000
DOCKED: USER    NEWDPF tran0 21.239028 -10.436324 -4.886796
DOCKED: USER    NEWDPF quaternion0 -0.327817 -0.203754 -0.069384 0.919895
DOCKED: USER    NEWDPF axisangle0 -0.835914 -0.519562 -0.176925 46.178595
DOCKED: USER    NEWDPF quat0 -0.835914 -0.519562 -0.176925 46.178595
DOCKED: USER    NEWDPF dihe0 141.70 -68.37 90.33 -132.99 120.32 -160.15 121.92 -179.48 172.21 
DOCKED: USER  keepresnum = 1 
DOCKED: USER  
DOCKED: REMARK  Name = 
DOCKED: REMARK  11 active torsions:
DOCKED: REMARK  status: ('A' for Active; 'I' for Inactive)
DOCKED: REMARK    1  A    between atoms: C_2  and  O_3
DOCKED: REMARK    2  A    between atoms: O_3  and  C_4
DOCKED: REMARK    3  A    between atoms: C_4  and  C_5
DOCKED: REMARK    4  A    between atoms: C_10  and  C_11
DOCKED: REMARK    5  A    between atoms: C_11  and  N_12
DOCKED: REMARK    6  A    between atoms: N_12  and  C_13
DOCKED: REMARK    7  A    between atoms: N_12  and  C_15
DOCKED: REMARK    8  A    between atoms: C_13  and  C_14
DOCKED: REMARK    9  A    between atoms: C_15  and  C_16
DOCKED: REMARK   10  A    between atoms: N_21  and  C_22
DOCKED: REMARK   11  A    between atoms: C_25  and  C_26
DOCKED: REMARK                            x       y       z     vdW  Elec       q    Type
DOCKED: REMARK                         _______ _______ _______ _____ _____    ______ ____
DOCKED: USER                              x       y       z     vdW  Elec       q    Type
DOCKED: USER                           _______ _______ _______ _____ _____    ______ ____
DOCKED: ROOT
DOCKED: ATOM      1  C   UNL     1      20.576  -9.247  -6.858 -0.18 -0.00    +0.000 C 
DOCKED: ENDROOT
DOCKED: BRANCH   1   2
DOCKED: ATOM      2  C   UNL     1      19.304  -9.676  -6.184 -0.19 -0.00    +0.000 A 
DOCKED: ATOM      3  C   UNL     1      18.882 -11.013  -6.239 -0.34 -0.00    +0.000 A 
DOCKED: ATOM      4  C   UNL     1      17.688 -11.404  -5.625 -0.18 -0.00    +0.000 A 
DOCKED: ATOM      5  C   UNL     1      16.893 -10.460  -4.961 -0.22 -0.00    +0.000 A 
DOCKED: ATOM      6  C   UNL     1      15.689 -10.841  -4.351 -0.17 -0.00    +0.000 A 
DOCKED: ATOM      7  C   UNL     1      14.878  -9.886  -3.716 -0.20 -0.00    +0.000 A 
DOCKED: ATOM      8  C   UNL     1      15.303  -8.549  -3.660 -0.16 -0.00    +0.000 A 
DOCKED: ATOM      9  C   UNL     1      16.506  -8.161  -4.258 -0.11 -0.00    +0.000 A 
DOCKED: ATOM     10  C   UNL     1      17.305  -9.107  -4.915 -0.17 -0.00    +0.000 A 
DOCKED: ATOM     11  C   UNL     1      18.509  -8.724  -5.526 -0.14 -0.00    +0.000 A 
DOCKED: BRANCH   7  12
DOCKED: ATOM     12  C   UNL     1      13.591 -10.306  -3.053 -0.26 -0.00    +0.000 C 
DOCKED: BRANCH  12  13
DOCKED: ATOM     13  N   UNL     1      13.857 -11.113  -1.842 -0.32 -0.00    +0.000 N 
DOCKED: ATOM     14  H   UNL     1      13.920 -12.058  -2.224 -0.04 -0.00    +0.000 HD
DOCKED: BRANCH  13  15
DOCKED: ATOM     15  C   UNL     1      15.181 -10.872  -1.229 -0.33 +0.00    +0.000 C 
DOCKED: ATOM     16  C   UNL     1      15.800 -12.117  -0.591 -0.43 +0.00    +0.000 C 
DOCKED: ENDBRANCH  13  15
DOCKED: BRANCH  13  17
DOCKED: ATOM     17  C   UNL     1      12.736 -11.271  -0.881 -0.27 +0.00    +0.000 C 
DOCKED: ATOM     18  C   UNL     1      12.917 -10.525   0.449 -0.29 +0.00    +0.000 C 
DOCKED: ENDBRANCH  13  17
DOCKED: ENDBRANCH  12  13
DOCKED: ENDBRANCH   7  12
DOCKED: ENDBRANCH   1   2
DOCKED: BRANCH   1  19
DOCKED: ATOM     19  O   UNL     1      21.683  -9.592  -6.033 -0.30 -0.00    +0.000 OA
DOCKED: BRANCH  19  21
DOCKED: ATOM     20  O   UNL     1      22.097 -11.308  -4.547 -0.59 -0.00    +0.000 OA
DOCKED: ATOM     21  C   UNL     1      21.536 -10.202  -4.784 -0.45 -0.00    +0.000 C 
DOCKED: ATOM     22  N   UNL     1      20.702  -9.578  -3.798 -0.36 -0.00    +0.000 N 
DOCKED: ATOM     23  H   UNL     1      20.190  -8.781  -4.066 -0.00 -0.00    +0.000 HD
DOCKED: BRANCH  22  24
DOCKED: ATOM     24  C   UNL     1      20.565 -10.039  -2.443 -0.47 -0.00    +0.000 A 
DOCKED: ATOM     25  C   UNL     1      21.711 -10.201  -1.652 -0.34 -0.00    +0.000 A 
DOCKED: ATOM     26  C   UNL     1      21.609 -10.672  -0.340 -0.54 -0.00    +0.000 A 
DOCKED: ATOM     27  C   UNL     1      20.355 -11.012   0.201 -0.58 -0.00    +0.000 A 
DOCKED: ATOM     28  C   UNL     1      19.207 -10.855  -0.597 -0.44 -0.00    +0.000 A 
DOCKED: ATOM     29  C   UNL     1      19.312 -10.383  -1.909 -0.35 -0.00    +0.000 A 
DOCKED: BRANCH  27  30
DOCKED: ATOM     30  C   UNL     1      20.226 -11.517   1.591 -0.76 -0.00    +0.000 C 
DOCKED: ATOM     31  N   UNL     1      20.488 -10.674   2.719 -0.65 -0.00    +0.000 N 
DOCKED: ATOM     32  O   UNL     1      20.263 -11.127   3.973 -1.18 -0.00    +0.000 OA
DOCKED: ATOM     33  O   UNL     1      19.893 -12.717   1.788 -1.63 -0.00    +0.000 OA
DOCKED: ATOM     34  H   UNL     1      20.832  -9.763   2.580 -0.58 -0.00    +0.000 HD
DOCKED: ENDBRANCH  27  30
DOCKED: ENDBRANCH  22  24
DOCKED: ENDBRANCH  19  21
DOCKED: ENDBRANCH   1  19
DOCKED: TORSDOF 9
DOCKED: TER
DOCKED: ENDMDL
________________________________________________________________________________


	BEGINNING GENETIC ALGORITHM DOCKING 12 of 100
Run: 12 Seed: 356232756 498932318 [ Run 12 of 100 GA/GALS ]
Beginning LAMARCKIAN GENETIC ALGORITHM (LGA), with a maximum of 2500000 energy evaluations.

Final-Value: -13.913


	FINAL GENETIC ALGORITHM DOCKED STATE
	_______________________________________________


Detailed state:  trans 18.922 -10.529 -2.936 quatxyzw -0.835242 0.104814 0.531446 -0.094608 center 1.619 0.086 0.013 ntor 9 162.4800 -50.8818 3.7531 -66.8119 175.3107 26.3402 139.9155 20.2247 86.1205
State:	 18.922 -10.529  -2.936  -0.839  0.105  0.534 -169.143    162.48  -50.88    3.75  -66.81  175.31   26.34  139.92   20.22   86.12

DOCKED: MODEL       12
DOCKED: USER    Run = 12
DOCKED: USER    DPF = ligand_dock.biased.dpf
DOCKED: USER  
DOCKED: USER    Estimated Free Energy of Binding    =   -9.86 kcal/mol  [=(1)+(2)+(3)-(4)]
DOCKED: USER    Estimated Inhibition Constant, Ki   =   58.80 nM (nanomolar)  [Temperature = 298.15 K]
DOCKED: USER    
DOCKED: USER    (1) Final Intermolecular Energy     =  -12.55 kcal/mol
DOCKED: USER        vdW + Hbond + desolv Energy     =  -12.55 kcal/mol
DOCKED: USER        Electrostatic Energy            =   +0.00 kcal/mol
DOCKED: USER    (2) Final Total Internal Energy     =   -1.36 kcal/mol
DOCKED: USER    (3) Torsional Free Energy           =   +2.68 kcal/mol
DOCKED: USER    (4) Unbound System's Energy  [=(2)] =   -1.36 kcal/mol
DOCKED: USER    
DOCKED: USER    
DOCKED: USER    NEWDPF move ligand.pdbqt
DOCKED: USER    NEWDPF about 1.619000 0.086000 0.013000
DOCKED: USER    NEWDPF tran0 18.922389 -10.529348 -2.936478
DOCKED: USER    NEWDPF quaternion0 -0.835242 0.104814 0.531446 -0.094608
DOCKED: USER    NEWDPF axisangle0 -0.839005 0.105286 0.533840 -169.142521
DOCKED: USER    NEWDPF quat0 -0.839005 0.105286 0.533840 -169.142521
DOCKED: USER    NEWDPF dihe0 162.48 -50.88 3.75 -66.81 175.31 26.34 139.92 20.22 86.12 
DOCKED: USER  keepresnum = 1 
DOCKED: USER  
DOCKED: REMARK  Name = 
DOCKED: REMARK  11 active torsions:
DOCKED: REMARK  status: ('A' for Active; 'I' for Inactive)
DOCKED: REMARK    1  A    between atoms: C_2  and  O_3
DOCKED: REMARK    2  A    between atoms: O_3  and  C_4
DOCKED: REMARK    3  A    between atoms: C_4  and  C_5
DOCKED: REMARK    4  A    between atoms: C_10  and  C_11
DOCKED: REMARK    5  A    between atoms: C_11  and  N_12
DOCKED: REMARK    6  A    between atoms: N_12  and  C_13
DOCKED: REMARK    7  A    between atoms: N_12  and  C_15
DOCKED: REMARK    8  A    between atoms: C_13  and  C_14
DOCKED: REMARK    9  A    between atoms: C_15  and  C_16
DOCKED: REMARK   10  A    between atoms: N_21  and  C_22
DOCKED: REMARK   11  A    between atoms: C_25  and  C_26
DOCKED: REMARK                            x       y       z     vdW  Elec       q    Type
DOCKED: REMARK                         _______ _______ _______ _____ _____    ______ ____
DOCKED: USER                              x       y       z     vdW  Elec       q    Type
DOCKED: USER                           _______ _______ _______ _____ _____    ______ ____
DOCKED: ROOT
DOCKED: ATOM      1  C   UNL     1      21.196 -10.875  -2.267 -0.38 -0.00    +0.000 C 
DOCKED: ENDROOT
DOCKED: BRANCH   1   2
DOCKED: ATOM      2  C   UNL     1      20.398 -10.796  -0.998 -0.47 -0.00    +0.000 A 
DOCKED: ATOM      3  C   UNL     1      21.026 -10.521   0.225 -0.63 -0.00    +0.000 A 
DOCKED: ATOM      4  C   UNL     1      20.281 -10.466   1.408 -0.55 -0.00    +0.000 A 
DOCKED: ATOM      5  C   UNL     1      18.898 -10.700   1.382 -0.48 -0.00    +0.000 A 
DOCKED: ATOM      6  C   UNL     1      18.144 -10.656   2.565 -0.48 -0.00    +0.000 A 
DOCKED: ATOM      7  C   UNL     1      16.766 -10.925   2.540 -0.42 +0.00    +0.000 A 
DOCKED: ATOM      8  C   UNL     1      16.138 -11.197   1.314 -0.36 +0.00    +0.000 A 
DOCKED: ATOM      9  C   UNL     1      16.880 -11.235   0.130 -0.35 +0.00    +0.000 A 
DOCKED: ATOM     10  C   UNL     1      18.261 -10.993   0.153 -0.40 -0.00    +0.000 A 
DOCKED: ATOM     11  C   UNL     1      19.015 -11.037  -1.029 -0.41 -0.00    +0.000 A 
DOCKED: BRANCH   7  12
DOCKED: ATOM     12  C   UNL     1      15.960 -10.865   3.813 -0.54 +0.00    +0.000 C 
DOCKED: BRANCH  12  13
DOCKED: ATOM     13  N   UNL     1      14.823  -9.929   3.677 -0.39 +0.00    +0.000 N 
DOCKED: ATOM     14  H   UNL     1      15.128  -9.332   2.907 -0.00 +0.00    +0.000 HD
DOCKED: BRANCH  13  15
DOCKED: ATOM     15  C   UNL     1      13.575 -10.554   3.190 -0.28 +0.00    +0.000 C 
DOCKED: ATOM     16  C   UNL     1      12.991  -9.877   1.948 -0.24 +0.00    +0.000 C 
DOCKED: ENDBRANCH  13  15
DOCKED: BRANCH  13  17
DOCKED: ATOM     17  C   UNL     1      14.646  -8.927   4.759 -0.40 +0.00    +0.000 C 
DOCKED: ATOM     18  C   UNL     1      13.706  -9.360   5.892 -0.50 +0.00    +0.000 C 
DOCKED: ENDBRANCH  13  17
DOCKED: ENDBRANCH  12  13
DOCKED: ENDBRANCH   7  12
DOCKED: ENDBRANCH   1   2
DOCKED: BRANCH   1  19
DOCKED: ATOM     19  O   UNL     1      20.311 -10.838  -3.382 -0.48 -0.00    +0.000 OA
DOCKED: BRANCH  19  21
DOCKED: ATOM     20  O   UNL     1      19.874 -11.895  -5.385 -0.58 -0.00    +0.000 OA
DOCKED: ATOM     21  C   UNL     1      20.688 -11.256  -4.661 -0.53 -0.00    +0.000 C 
DOCKED: ATOM     22  N   UNL     1      22.021 -10.990  -5.117 -0.47 -0.00    +0.000 N 
DOCKED: ATOM     23  H   UNL     1      22.656 -10.596  -4.476 -0.01 -0.00    +0.000 HD
DOCKED: BRANCH  22  24
DOCKED: ATOM     24  C   UNL     1      22.492 -11.260  -6.448 -0.43 -0.00    +0.000 A 
DOCKED: ATOM     25  C   UNL     1      23.548 -12.164  -6.634 -0.27 -0.00    +0.000 A 
DOCKED: ATOM     26  C   UNL     1      24.043 -12.425  -7.914 -0.35 -0.00    +0.000 A 
DOCKED: ATOM     27  C   UNL     1      23.505 -11.766  -9.036 -0.31 -0.00    +0.000 A 
DOCKED: ATOM     28  C   UNL     1      22.451 -10.855  -8.846 -0.23 -0.00    +0.000 A 
DOCKED: ATOM     29  C   UNL     1      21.957 -10.596  -7.564 -0.28 -0.00    +0.000 A 
DOCKED: BRANCH  27  30
DOCKED: ATOM     30  C   UNL     1      24.019 -12.028 -10.404 -0.24 -0.00    +0.000 C 
DOCKED: ATOM     31  N   UNL     1      25.300 -12.631 -10.618 -0.25 -0.00    +0.000 N 
DOCKED: ATOM     32  O   UNL     1      25.700 -12.952 -11.869 -0.20 -0.00    +0.000 OA
DOCKED: ATOM     33  O   UNL     1      23.322 -11.701 -11.403 -0.14 -0.00    +0.000 OA
DOCKED: ATOM     34  H   UNL     1      25.891 -12.811  -9.852 -0.48 -0.00    +0.000 HD
DOCKED: ENDBRANCH  27  30
DOCKED: ENDBRANCH  22  24
DOCKED: ENDBRANCH  19  21
DOCKED: ENDBRANCH   1  19
DOCKED: TORSDOF 9
DOCKED: TER
DOCKED: ENDMDL
________________________________________________________________________________


	BEGINNING GENETIC ALGORITHM DOCKING 13 of 100
Run: 13 Seed: 1270002187 633811180 [ Run 13 of 100 GA/GALS ]
Beginning LAMARCKIAN GENETIC ALGORITHM (LGA), with a maximum of 2500000 energy evaluations.

Final-Value: -15.130


	FINAL GENETIC ALGORITHM DOCKED STATE
	_______________________________________________


Detailed state:  trans 18.254 -10.612 -4.545 quatxyzw 0.252128 0.427099 -0.032165 -0.867746 center 1.619 0.086 0.013 ntor 9 50.2293 178.1768 -51.9321 131.2500 130.9401 36.6836 112.6883 -170.5787 162.3484
State:	 18.254 -10.612  -4.545   0.507  0.859 -0.065 -59.604     50.23  178.18  -51.93  131.25  130.94   36.68  112.69 -170.58  162.35

DOCKED: MODEL       13
DOCKED: USER    Run = 13
DOCKED: USER    DPF = ligand_dock.biased.dpf
DOCKED: USER  
DOCKED: USER    Estimated Free Energy of Binding    =   -9.76 kcal/mol  [=(1)+(2)+(3)-(4)]
DOCKED: USER    Estimated Inhibition Constant, Ki   =   70.53 nM (nanomolar)  [Temperature = 298.15 K]
DOCKED: USER    
DOCKED: USER    (1) Final Intermolecular Energy     =  -12.44 kcal/mol
DOCKED: USER        vdW + Hbond + desolv Energy     =  -12.44 kcal/mol
DOCKED: USER        Electrostatic Energy            =   +0.00 kcal/mol
DOCKED: USER    (2) Final Total Internal Energy     =   -2.69 kcal/mol
DOCKED: USER    (3) Torsional Free Energy           =   +2.68 kcal/mol
DOCKED: USER    (4) Unbound System's Energy  [=(2)] =   -2.69 kcal/mol
DOCKED: USER    
DOCKED: USER    
DOCKED: USER    NEWDPF move ligand.pdbqt
DOCKED: USER    NEWDPF about 1.619000 0.086000 0.013000
DOCKED: USER    NEWDPF tran0 18.253744 -10.611792 -4.544769
DOCKED: USER    NEWDPF quaternion0 0.252128 0.427099 -0.032165 -0.867746
DOCKED: USER    NEWDPF axisangle0 0.507292 0.859341 -0.064718 -59.604501
DOCKED: USER    NEWDPF quat0 0.507292 0.859341 -0.064718 -59.604501
DOCKED: USER    NEWDPF dihe0 50.23 178.18 -51.93 131.25 130.94 36.68 112.69 -170.58 162.35 
DOCKED: USER  keepresnum = 1 
DOCKED: USER  
DOCKED: REMARK  Name = 
DOCKED: REMARK  11 active torsions:
DOCKED: REMARK  status: ('A' for Active; 'I' for Inactive)
DOCKED: REMARK    1  A    between atoms: C_2  and  O_3
DOCKED: REMARK    2  A    between atoms: O_3  and  C_4
DOCKED: REMARK    3  A    between atoms: C_4  and  C_5
DOCKED: REMARK    4  A    between atoms: C_10  and  C_11
DOCKED: REMARK    5  A    between atoms: C_11  and  N_12
DOCKED: REMARK    6  A    between atoms: N_12  and  C_13
DOCKED: REMARK    7  A    between atoms: N_12  and  C_15
DOCKED: REMARK    8  A    between atoms: C_13  and  C_14
DOCKED: REMARK    9  A    between atoms: C_15  and  C_16
DOCKED: REMARK   10  A    between atoms: N_21  and  C_22
DOCKED: REMARK   11  A    between atoms: C_25  and  C_26
DOCKED: REMARK                            x       y       z     vdW  Elec       q    Type
DOCKED: REMARK                         _______ _______ _______ _____ _____    ______ ____
DOCKED: USER                              x       y       z     vdW  Elec       q    Type
DOCKED: USER                           _______ _______ _______ _____ _____    ______ ____
DOCKED: ROOT
DOCKED: ATOM      1  C   UNL     1      16.691  -9.748  -6.141 -0.17 -0.00    +0.000 C 
DOCKED: ENDROOT
DOCKED: BRANCH   1   2
DOCKED: ATOM      2  C   UNL     1      15.906  -9.997  -4.886 -0.18 -0.00    +0.000 A 
DOCKED: ATOM      3  C   UNL     1      15.387 -11.270  -4.609 -0.16 -0.00    +0.000 A 
DOCKED: ATOM      4  C   UNL     1      14.642 -11.494  -3.447 -0.20 -0.00    +0.000 A 
DOCKED: ATOM      5  C   UNL     1      14.394 -10.441  -2.554 -0.26 -0.00    +0.000 A 
DOCKED: ATOM      6  C   UNL     1      13.639 -10.654  -1.390 -0.27 -0.00    +0.000 A 
DOCKED: ATOM      7  C   UNL     1      13.363  -9.589  -0.516 -0.17 +0.00    +0.000 A 
DOCKED: ATOM      8  C   UNL     1      13.886  -8.316  -0.794 -0.19 -0.00    +0.000 A 
DOCKED: ATOM      9  C   UNL     1      14.646  -8.097  -1.947 -0.16 -0.00    +0.000 A 
DOCKED: ATOM     10  C   UNL     1      14.902  -9.151  -2.835 -0.19 -0.00    +0.000 A 
DOCKED: ATOM     11  C   UNL     1      15.656  -8.938  -3.999 -0.16 -0.00    +0.000 A 
DOCKED: BRANCH   7  12
DOCKED: ATOM     12  C   UNL     1      12.561  -9.828   0.738 -0.20 +0.00    +0.000 C 
DOCKED: BRANCH  12  13
DOCKED: ATOM     13  N   UNL     1      13.405 -10.410   1.804 -0.26 +0.00    +0.000 N 
DOCKED: ATOM     14  H   UNL     1      12.756 -10.455   2.590 -0.02 +0.00    +0.000 HD
DOCKED: BRANCH  13  15
DOCKED: ATOM     15  C   UNL     1      13.801 -11.815   1.569 -0.43 +0.00    +0.000 C 
DOCKED: ATOM     16  C   UNL     1      15.316 -12.033   1.552 -0.49 +0.00    +0.000 C 
DOCKED: ENDBRANCH  13  15
DOCKED: BRANCH  13  17
DOCKED: ATOM     17  C   UNL     1      14.470  -9.540   2.366 -0.30 +0.00    +0.000 C 
DOCKED: ATOM     18  C   UNL     1      14.601  -9.586   3.895 -0.42 +0.00    +0.000 C 
DOCKED: ENDBRANCH  13  17
DOCKED: ENDBRANCH  12  13
DOCKED: ENDBRANCH   7  12
DOCKED: ENDBRANCH   1   2
DOCKED: BRANCH   1  19
DOCKED: ATOM     19  O   UNL     1      18.070  -9.997  -5.890 -0.21 -0.00    +0.000 OA
DOCKED: BRANCH  19  21
DOCKED: ATOM     20  O   UNL     1      19.060 -11.696  -4.685 -0.47 -0.00    +0.000 OA
DOCKED: ATOM     21  C   UNL     1      18.534 -10.549  -4.693 -0.33 -0.00    +0.000 C 
DOCKED: ATOM     22  N   UNL     1      18.359  -9.815  -3.474 -0.27 -0.00    +0.000 N 
DOCKED: ATOM     23  H   UNL     1      17.838  -8.980  -3.510 -0.01 -0.00    +0.000 HD
DOCKED: BRANCH  22  24
DOCKED: ATOM     24  C   UNL     1      18.896 -10.216  -2.202 -0.23 -0.00    +0.000 A 
DOCKED: ATOM     25  C   UNL     1      18.028 -10.692  -1.208 -0.27 -0.00    +0.000 A 
DOCKED: ATOM     26  C   UNL     1      18.518 -11.064   0.046 -0.42 -0.00    +0.000 A 
DOCKED: ATOM     27  C   UNL     1      19.889 -10.945   0.340 -0.56 -0.00    +0.000 A 
DOCKED: ATOM     28  C   UNL     1      20.757 -10.461  -0.656 -0.59 -0.00    +0.000 A 
DOCKED: ATOM     29  C   UNL     1      20.264 -10.090  -1.910 -0.47 -0.00    +0.000 A 
DOCKED: BRANCH  27  30
DOCKED: ATOM     30  C   UNL     1      20.430 -11.333   1.667 -0.76 -0.00    +0.000 C 
DOCKED: ATOM     31  N   UNL     1      20.218 -10.519   2.827 -0.66 -0.00    +0.000 N 
DOCKED: ATOM     32  O   UNL     1      20.632 -10.945   4.042 -1.05 -0.00    +0.000 OA
DOCKED: ATOM     33  O   UNL     1      21.102 -12.395   1.779 -1.41 -0.00    +0.000 OA
DOCKED: ATOM     34  H   UNL     1      19.772  -9.647   2.738 -0.48 -0.00    +0.000 HD
DOCKED: ENDBRANCH  27  30
DOCKED: ENDBRANCH  22  24
DOCKED: ENDBRANCH  19  21
DOCKED: ENDBRANCH   1  19
DOCKED: TORSDOF 9
DOCKED: TER
DOCKED: ENDMDL
________________________________________________________________________________


	BEGINNING GENETIC ALGORITHM DOCKING 14 of 100
Run: 14 Seed: 486176328 1439171896 [ Run 14 of 100 GA/GALS ]
Beginning LAMARCKIAN GENETIC ALGORITHM (LGA), with a maximum of 2500000 energy evaluations.

Final-Value: -15.555


	FINAL GENETIC ALGORITHM DOCKED STATE
	_______________________________________________


Detailed state:  trans 22.341 -8.772 -4.240 quatxyzw -0.028282 -0.436317 0.640056 0.631788 center 1.619 0.086 0.013 ntor 9 -180.0000 167.5302 84.6150 -14.4791 -150.1650 -154.9480 -177.4897 -113.1162 -35.6061
State:	 22.341  -8.772  -4.240  -0.036 -0.563  0.826 101.636   -180.00  167.53   84.61  -14.48 -150.17 -154.95 -177.49 -113.12  -35.61

DOCKED: MODEL       14
DOCKED: USER    Run = 14
DOCKED: USER    DPF = ligand_dock.biased.dpf
DOCKED: USER  
DOCKED: USER    Estimated Free Energy of Binding    =  -10.94 kcal/mol  [=(1)+(2)+(3)-(4)]
DOCKED: USER    Estimated Inhibition Constant, Ki   =    9.54 nM (nanomolar)  [Temperature = 298.15 K]
DOCKED: USER    
DOCKED: USER    (1) Final Intermolecular Energy     =  -13.63 kcal/mol
DOCKED: USER        vdW + Hbond + desolv Energy     =  -13.63 kcal/mol
DOCKED: USER        Electrostatic Energy            =   +0.00 kcal/mol
DOCKED: USER    (2) Final Total Internal Energy     =   -1.93 kcal/mol
DOCKED: USER    (3) Torsional Free Energy           =   +2.68 kcal/mol
DOCKED: USER    (4) Unbound System's Energy  [=(2)] =   -1.93 kcal/mol
DOCKED: USER    
DOCKED: USER    
DOCKED: USER    NEWDPF move ligand.pdbqt
DOCKED: USER    NEWDPF about 1.619000 0.086000 0.013000
DOCKED: USER    NEWDPF tran0 22.341414 -8.772308 -4.240202
DOCKED: USER    NEWDPF quaternion0 -0.028282 -0.436317 0.640056 0.631788
DOCKED: USER    NEWDPF axisangle0 -0.036486 -0.562887 0.825728 101.635747
DOCKED: USER    NEWDPF quat0 -0.036486 -0.562887 0.825728 101.635747
DOCKED: USER    NEWDPF dihe0 -180.00 167.53 84.61 -14.48 -150.17 -154.95 -177.49 -113.12 -35.61 
DOCKED: USER  keepresnum = 1 
DOCKED: USER  
DOCKED: REMARK  Name = 
DOCKED: REMARK  11 active torsions:
DOCKED: REMARK  status: ('A' for Active; 'I' for Inactive)
DOCKED: REMARK    1  A    between atoms: C_2  and  O_3
DOCKED: REMARK    2  A    between atoms: O_3  and  C_4
DOCKED: REMARK    3  A    between atoms: C_4  and  C_5
DOCKED: REMARK    4  A    between atoms: C_10  and  C_11
DOCKED: REMARK    5  A    between atoms: C_11  and  N_12
DOCKED: REMARK    6  A    between atoms: N_12  and  C_13
DOCKED: REMARK    7  A    between atoms: N_12  and  C_15
DOCKED: REMARK    8  A    between atoms: C_13  and  C_14
DOCKED: REMARK    9  A    between atoms: C_15  and  C_16
DOCKED: REMARK   10  A    between atoms: N_21  and  C_22
DOCKED: REMARK   11  A    between atoms: C_25  and  C_26
DOCKED: REMARK                            x       y       z     vdW  Elec       q    Type
DOCKED: REMARK                         _______ _______ _______ _____ _____    ______ ____
DOCKED: USER                              x       y       z     vdW  Elec       q    Type
DOCKED: USER                           _______ _______ _______ _____ _____    ______ ____
DOCKED: ROOT
DOCKED: ATOM      1  C   UNL     1      20.790  -7.717  -5.729 -0.16 -0.00    +0.000 C 
DOCKED: ENDROOT
DOCKED: BRANCH   1   2
DOCKED: ATOM      2  C   UNL     1      21.253  -6.645  -4.785 -0.19 -0.00    +0.000 A 
DOCKED: ATOM      3  C   UNL     1      22.512  -6.046  -4.947 -0.15 -0.00    +0.000 A 
DOCKED: ATOM      4  C   UNL     1      22.947  -5.061  -4.055 -0.10 -0.00    +0.000 A 
DOCKED: ATOM      5  C   UNL     1      22.134  -4.673  -2.980 -0.25 -0.00    +0.000 A 
DOCKED: ATOM      6  C   UNL     1      22.566  -3.692  -2.075 -0.27 -0.00    +0.000 A 
DOCKED: ATOM      7  C   UNL     1      21.764  -3.331  -0.980 -0.32 +0.00    +0.000 A 
DOCKED: ATOM      8  C   UNL     1      20.503  -3.929  -0.822 -0.40 +0.00    +0.000 A 
DOCKED: ATOM      9  C   UNL     1      20.061  -4.902  -1.724 +0.09 -0.00    +0.000 A 
DOCKED: ATOM     10  C   UNL     1      20.870  -5.284  -2.803 -0.31 -0.00    +0.000 A 
DOCKED: ATOM     11  C   UNL     1      20.438  -6.265  -3.708 -0.23 -0.00    +0.000 A 
DOCKED: BRANCH   7  12
DOCKED: ATOM     12  C   UNL     1      22.230  -2.268  -0.018 -0.32 -0.00    +0.000 C 
DOCKED: BRANCH  12  13
DOCKED: ATOM     13  N   UNL     1      21.090  -1.689   0.726 -0.35 -0.00    +0.000 N 
DOCKED: ATOM     14  H   UNL     1      20.444  -2.478   0.775 -0.02 -0.00    +0.000 HD
DOCKED: BRANCH  13  15
DOCKED: ATOM     15  C   UNL     1      21.386  -1.364   2.138 -0.46 -0.00    +0.000 C 
DOCKED: ATOM     16  C   UNL     1      20.723  -2.312   3.140 -0.76 -0.00    +0.000 C 
DOCKED: ENDBRANCH  13  15
DOCKED: BRANCH  13  17
DOCKED: ATOM     17  C   UNL     1      20.261  -0.687   0.009 -0.17 -0.00    +0.000 C 
DOCKED: ATOM     18  C   UNL     1      18.758  -0.997  -0.023 -0.17 -0.00    +0.000 C 
DOCKED: ENDBRANCH  13  17
DOCKED: ENDBRANCH  12  13
DOCKED: ENDBRANCH   7  12
DOCKED: ENDBRANCH   1   2
DOCKED: BRANCH   1  19
DOCKED: ATOM     19  O   UNL     1      21.518  -8.914  -5.475 -0.28 -0.00    +0.000 OA
DOCKED: BRANCH  19  21
DOCKED: ATOM     20  O   UNL     1      22.137 -10.638  -4.073 -0.52 -0.00    +0.000 OA
DOCKED: ATOM     21  C   UNL     1      21.419  -9.619  -4.272 -0.42 -0.00    +0.000 C 
DOCKED: ATOM     22  N   UNL     1      20.461  -9.195  -3.293 -0.36 -0.00    +0.000 N 
DOCKED: ATOM     23  H   UNL     1      19.842  -8.470  -3.539 -0.01 -0.00    +0.000 HD
DOCKED: BRANCH  22  24
DOCKED: ATOM     24  C   UNL     1      20.345  -9.758  -1.976 -0.45 -0.00    +0.000 A 
DOCKED: ATOM     25  C   UNL     1      21.440  -9.695  -1.102 -0.54 -0.00    +0.000 A 
DOCKED: ATOM     26  C   UNL     1      21.364 -10.257   0.175 -0.58 -0.00    +0.000 A 
DOCKED: ATOM     27  C   UNL     1      20.193 -10.915   0.597 -0.60 -0.00    +0.000 A 
DOCKED: ATOM     28  C   UNL     1      19.099 -10.982  -0.284 -0.45 -0.00    +0.000 A 
DOCKED: ATOM     29  C   UNL     1      19.177 -10.419  -1.561 -0.32 -0.00    +0.000 A 
DOCKED: BRANCH  27  30
DOCKED: ATOM     30  C   UNL     1      20.094 -11.521   1.949 -0.76 -0.00    +0.000 C 
DOCKED: ATOM     31  N   UNL     1      20.189 -10.723   3.134 -0.69 -0.00    +0.000 N 
DOCKED: ATOM     32  O   UNL     1      19.992 -11.283   4.349 -0.95 -0.00    +0.000 OA
DOCKED: ATOM     33  O   UNL     1      19.935 -12.767   2.061 -1.58 -0.00    +0.000 OA
DOCKED: ATOM     34  H   UNL     1      20.399  -9.764   3.064 -0.57 -0.00    +0.000 HD
DOCKED: ENDBRANCH  27  30
DOCKED: ENDBRANCH  22  24
DOCKED: ENDBRANCH  19  21
DOCKED: ENDBRANCH   1  19
DOCKED: TORSDOF 9
DOCKED: TER
DOCKED: ENDMDL
________________________________________________________________________________


	BEGINNING GENETIC ALGORITHM DOCKING 15 of 100
Run: 15 Seed: 1224364107 815234332 [ Run 15 of 100 GA/GALS ]
Beginning LAMARCKIAN GENETIC ALGORITHM (LGA), with a maximum of 2500000 energy evaluations.

Final-Value: -15.909


	FINAL GENETIC ALGORITHM DOCKED STATE
	_______________________________________________


Detailed state:  trans 19.754 -10.574 1.516 quatxyzw 0.900259 0.108823 0.390028 0.159906 center 1.619 0.086 0.013 ntor 9 74.7359 -180.0000 -118.3747 -179.9940 -23.0381 -108.2219 -108.0966 163.4911 -28.4122
State:	 19.754 -10.574   1.516   0.912  0.110  0.395 161.597     74.74 -180.00 -118.37 -179.99  -23.04 -108.22 -108.10  163.49  -28.41

DOCKED: MODEL       15
DOCKED: USER    Run = 15
DOCKED: USER    DPF = ligand_dock.biased.dpf
DOCKED: USER  
DOCKED: USER    Estimated Free Energy of Binding    =  -10.46 kcal/mol  [=(1)+(2)+(3)-(4)]
DOCKED: USER    Estimated Inhibition Constant, Ki   =   21.44 nM (nanomolar)  [Temperature = 298.15 K]
DOCKED: USER    
DOCKED: USER    (1) Final Intermolecular Energy     =  -13.15 kcal/mol
DOCKED: USER        vdW + Hbond + desolv Energy     =  -13.15 kcal/mol
DOCKED: USER        Electrostatic Energy            =   +0.00 kcal/mol
DOCKED: USER    (2) Final Total Internal Energy     =   -2.76 kcal/mol
DOCKED: USER    (3) Torsional Free Energy           =   +2.68 kcal/mol
DOCKED: USER    (4) Unbound System's Energy  [=(2)] =   -2.76 kcal/mol
DOCKED: USER    
DOCKED: USER    
DOCKED: USER    NEWDPF move ligand.pdbqt
DOCKED: USER    NEWDPF about 1.619000 0.086000 0.013000
DOCKED: USER    NEWDPF tran0 19.754364 -10.574317 1.516006
DOCKED: USER    NEWDPF quaternion0 0.900259 0.108823 0.390028 0.159906
DOCKED: USER    NEWDPF axisangle0 0.911994 0.110241 0.395112 161.597077
DOCKED: USER    NEWDPF quat0 0.911994 0.110241 0.395112 161.597077
DOCKED: USER    NEWDPF dihe0 74.74 -180.00 -118.37 -179.99 -23.04 -108.22 -108.10 163.49 -28.41 
DOCKED: USER  keepresnum = 1 
DOCKED: USER  
DOCKED: REMARK  Name = 
DOCKED: REMARK  11 active torsions:
DOCKED: REMARK  status: ('A' for Active; 'I' for Inactive)
DOCKED: REMARK    1  A    between atoms: C_2  and  O_3
DOCKED: REMARK    2  A    between atoms: O_3  and  C_4
DOCKED: REMARK    3  A    between atoms: C_4  and  C_5
DOCKED: REMARK    4  A    between atoms: C_10  and  C_11
DOCKED: REMARK    5  A    between atoms: C_11  and  N_12
DOCKED: REMARK    6  A    between atoms: N_12  and  C_13
DOCKED: REMARK    7  A    between atoms: N_12  and  C_15
DOCKED: REMARK    8  A    between atoms: C_13  and  C_14
DOCKED: REMARK    9  A    between atoms: C_15  and  C_16
DOCKED: REMARK   10  A    between atoms: N_21  and  C_22
DOCKED: REMARK   11  A    between atoms: C_25  and  C_26
DOCKED: REMARK                            x       y       z     vdW  Elec       q    Type
DOCKED: REMARK                         _______ _______ _______ _____ _____    ______ ____
DOCKED: USER                              x       y       z     vdW  Elec       q    Type
DOCKED: USER                           _______ _______ _______ _____ _____    ______ ____
DOCKED: ROOT
DOCKED: ATOM      1  C   UNL     1      18.325 -11.122   3.358 -0.34 +0.00    +0.000 C 
DOCKED: ENDROOT
DOCKED: BRANCH   1   2
DOCKED: ATOM      2  C   UNL     1      17.475 -11.237   2.125 -0.41 +0.00    +0.000 A 
DOCKED: ATOM      3  C   UNL     1      17.469 -12.420   1.370 -0.27 +0.00    +0.000 A 
DOCKED: ATOM      4  C   UNL     1      16.691 -12.516   0.213 -0.47 +0.00    +0.000 A 
DOCKED: ATOM      5  C   UNL     1      15.919 -11.426  -0.212 -0.34 +0.00    +0.000 A 
DOCKED: ATOM      6  C   UNL     1      15.142 -11.510  -1.378 -0.31 +0.00    +0.000 A 
DOCKED: ATOM      7  C   UNL     1      14.397 -10.404  -1.819 -0.26 -0.00    +0.000 A 
DOCKED: ATOM      8  C   UNL     1      14.402  -9.223  -1.060 -0.21 -0.00    +0.000 A 
DOCKED: ATOM      9  C   UNL     1      15.167  -9.132   0.107 -0.21 -0.00    +0.000 A 
DOCKED: ATOM     10  C   UNL     1      15.932 -10.225   0.537 -0.27 +0.00    +0.000 A 
DOCKED: ATOM     11  C   UNL     1      16.710 -10.140   1.702 -0.33 +0.00    +0.000 A 
DOCKED: BRANCH   7  12
DOCKED: ATOM     12  C   UNL     1      13.556 -10.507  -3.066 -0.27 -0.00    +0.000 C 
DOCKED: BRANCH  12  13
DOCKED: ATOM     13  N   UNL     1      14.403 -10.500  -4.279 -0.23 -0.00    +0.000 N 
DOCKED: ATOM     14  H   UNL     1      13.905  -9.846  -4.884 +0.00 -0.00    +0.000 HD
DOCKED: BRANCH  13  15
DOCKED: ATOM     15  C   UNL     1      15.735  -9.887  -4.087 -0.23 -0.00    +0.000 C 
DOCKED: ATOM     16  C   UNL     1      16.835 -10.528  -4.937 -0.25 -0.00    +0.000 C 
DOCKED: ENDBRANCH  13  15
DOCKED: BRANCH  13  17
DOCKED: ATOM     17  C   UNL     1      14.387 -11.727  -5.115 -0.28 -0.00    +0.000 C 
DOCKED: ATOM     18  C   UNL     1      14.351 -11.476  -6.629 -0.26 -0.00    +0.000 C 
DOCKED: ENDBRANCH  13  17
DOCKED: ENDBRANCH  12  13
DOCKED: ENDBRANCH   7  12
DOCKED: ENDBRANCH   1   2
DOCKED: BRANCH   1  19
DOCKED: ATOM     19  O   UNL     1      19.670 -10.853   2.978 -0.91 -0.00    +0.000 OA
DOCKED: BRANCH  19  21
DOCKED: ATOM     20  O   UNL     1      20.938 -12.062   1.477 -1.39 -0.00    +0.000 OA
DOCKED: ATOM     21  C   UNL     1      20.155 -11.095   1.690 -0.73 -0.00    +0.000 C 
DOCKED: ATOM     22  N   UNL     1      19.788 -10.203   0.629 -0.51 -0.00    +0.000 N 
DOCKED: ATOM     23  H   UNL     1      19.274  -9.396   0.863 -0.04 -0.00    +0.000 HD
DOCKED: BRANCH  22  24
DOCKED: ATOM     24  C   UNL     1      20.120 -10.408  -0.755 -0.51 -0.00    +0.000 A 
DOCKED: ATOM     25  C   UNL     1      19.117 -10.798  -1.653 -0.39 -0.00    +0.000 A 
DOCKED: ATOM     26  C   UNL     1      19.416 -11.029  -2.997 -0.36 -0.00    +0.000 A 
DOCKED: ATOM     27  C   UNL     1      20.736 -10.897  -3.468 -0.43 -0.00    +0.000 A 
DOCKED: ATOM     28  C   UNL     1      21.742 -10.512  -2.564 -0.33 -0.00    +0.000 A 
DOCKED: ATOM     29  C   UNL     1      21.440 -10.280  -1.219 -0.56 -0.00    +0.000 A 
DOCKED: BRANCH  27  30
DOCKED: ATOM     30  C   UNL     1      21.075 -11.141  -4.893 -0.53 -0.00    +0.000 C 
DOCKED: ATOM     31  N   UNL     1      22.284 -11.810  -5.269 -0.54 -0.00    +0.000 N 
DOCKED: ATOM     32  O   UNL     1      22.519 -12.111  -6.566 -0.57 -0.00    +0.000 OA
DOCKED: ATOM     33  O   UNL     1      20.291 -10.740  -5.796 -0.37 -0.00    +0.000 OA
DOCKED: ATOM     34  H   UNL     1      22.945 -12.051  -4.581 -0.04 -0.00    +0.000 HD
DOCKED: ENDBRANCH  27  30
DOCKED: ENDBRANCH  22  24
DOCKED: ENDBRANCH  19  21
DOCKED: ENDBRANCH   1  19
DOCKED: TORSDOF 9
DOCKED: TER
DOCKED: ENDMDL
________________________________________________________________________________


	BEGINNING GENETIC ALGORITHM DOCKING 16 of 100
Run: 16 Seed: 1249808602 1656418072 [ Run 16 of 100 GA/GALS ]
Beginning LAMARCKIAN GENETIC ALGORITHM (LGA), with a maximum of 2500000 energy evaluations.

Final-Value: -14.316


	FINAL GENETIC ALGORITHM DOCKED STATE
	_______________________________________________


Detailed state:  trans 20.819 -8.651 -4.365 quatxyzw 0.283442 0.141033 -0.170830 0.933053 center 1.619 0.086 0.013 ntor 9 -98.1187 -140.1267 152.0013 -22.6922 -41.2939 49.0864 -144.4880 -125.7785 169.7989
State:	 20.819  -8.651  -4.365   0.788  0.392 -0.475 42.168    -98.12 -140.13  152.00  -22.69  -41.29   49.09 -144.49 -125.78  169.80

DOCKED: MODEL       16
DOCKED: USER    Run = 16
DOCKED: USER    DPF = ligand_dock.biased.dpf
DOCKED: USER  
DOCKED: USER    Estimated Free Energy of Binding    =   -9.81 kcal/mol  [=(1)+(2)+(3)-(4)]
DOCKED: USER    Estimated Inhibition Constant, Ki   =   63.95 nM (nanomolar)  [Temperature = 298.15 K]
DOCKED: USER    
DOCKED: USER    (1) Final Intermolecular Energy     =  -12.50 kcal/mol
DOCKED: USER        vdW + Hbond + desolv Energy     =  -12.50 kcal/mol
DOCKED: USER        Electrostatic Energy            =   +0.00 kcal/mol
DOCKED: USER    (2) Final Total Internal Energy     =   -1.82 kcal/mol
DOCKED: USER    (3) Torsional Free Energy           =   +2.68 kcal/mol
DOCKED: USER    (4) Unbound System's Energy  [=(2)] =   -1.82 kcal/mol
DOCKED: USER    
DOCKED: USER    
DOCKED: USER    NEWDPF move ligand.pdbqt
DOCKED: USER    NEWDPF about 1.619000 0.086000 0.013000
DOCKED: USER    NEWDPF tran0 20.819325 -8.650544 -4.365225
DOCKED: USER    NEWDPF quaternion0 0.283442 0.141033 -0.170830 0.933053
DOCKED: USER    NEWDPF axisangle0 0.787909 0.392042 -0.474871 42.168414
DOCKED: USER    NEWDPF quat0 0.787909 0.392042 -0.474871 42.168414
DOCKED: USER    NEWDPF dihe0 -98.12 -140.13 152.00 -22.69 -41.29 49.09 -144.49 -125.78 169.80 
DOCKED: USER  keepresnum = 1 
DOCKED: USER  
DOCKED: REMARK  Name = 
DOCKED: REMARK  11 active torsions:
DOCKED: REMARK  status: ('A' for Active; 'I' for Inactive)
DOCKED: REMARK    1  A    between atoms: C_2  and  O_3
DOCKED: REMARK    2  A    between atoms: O_3  and  C_4
DOCKED: REMARK    3  A    between atoms: C_4  and  C_5
DOCKED: REMARK    4  A    between atoms: C_10  and  C_11
DOCKED: REMARK    5  A    between atoms: C_11  and  N_12
DOCKED: REMARK    6  A    between atoms: N_12  and  C_13
DOCKED: REMARK    7  A    between atoms: N_12  and  C_15
DOCKED: REMARK    8  A    between atoms: C_13  and  C_14
DOCKED: REMARK    9  A    between atoms: C_15  and  C_16
DOCKED: REMARK   10  A    between atoms: N_21  and  C_22
DOCKED: REMARK   11  A    between atoms: C_25  and  C_26
DOCKED: REMARK                            x       y       z     vdW  Elec       q    Type
DOCKED: REMARK                         _______ _______ _______ _____ _____    ______ ____
DOCKED: USER                              x       y       z     vdW  Elec       q    Type
DOCKED: USER                           _______ _______ _______ _____ _____    ______ ____
DOCKED: ROOT
DOCKED: ATOM      1  C   UNL     1      22.065  -9.890  -5.993 -0.35 -0.00    +0.000 C 
DOCKED: ENDROOT
DOCKED: BRANCH   1   2
DOCKED: ATOM      2  C   UNL     1      20.636 -10.328  -6.142 -0.29 -0.00    +0.000 A 
DOCKED: ATOM      3  C   UNL     1      20.065 -11.225  -5.227 -0.43 -0.00    +0.000 A 
DOCKED: ATOM      4  C   UNL     1      18.739 -11.644  -5.380 -0.27 -0.00    +0.000 A 
DOCKED: ATOM      5  C   UNL     1      17.973 -11.182  -6.459 -0.34 -0.00    +0.000 A 
DOCKED: ATOM      6  C   UNL     1      16.645 -11.604  -6.625 -0.31 -0.00    +0.000 A 
DOCKED: ATOM      7  C   UNL     1      15.891 -11.166  -7.727 -0.24 -0.00    +0.000 A 
DOCKED: ATOM      8  C   UNL     1      16.464 -10.265  -8.639 -0.15 -0.00    +0.000 A 
DOCKED: ATOM      9  C   UNL     1      17.783  -9.833  -8.477 -0.15 -0.00    +0.000 A 
DOCKED: ATOM     10  C   UNL     1      18.548 -10.288  -7.393 -0.24 -0.00    +0.000 A 
DOCKED: ATOM     11  C   UNL     1      19.875  -9.866  -7.228 -0.20 -0.00    +0.000 A 
DOCKED: BRANCH   7  12
DOCKED: ATOM     12  C   UNL     1      14.462 -11.615  -7.892 -0.23 -0.00    +0.000 C 
DOCKED: BRANCH  12  13
DOCKED: ATOM     13  N   UNL     1      14.383 -12.836  -8.724 -0.29 -0.00    +0.000 N 
DOCKED: ATOM     14  H   UNL     1      15.321 -13.225  -8.622 -0.03 +0.00    +0.000 HD
DOCKED: BRANCH  13  15
DOCKED: ATOM     15  C   UNL     1      13.486 -13.881  -8.188 -0.24 +0.00    +0.000 C 
DOCKED: ATOM     16  C   UNL     1      13.310 -13.821  -6.668 -0.40 -0.00    +0.000 C 
DOCKED: ENDBRANCH  13  15
DOCKED: BRANCH  13  17
DOCKED: ATOM     17  C   UNL     1      14.315 -12.641 -10.195 -0.21 -0.00    +0.000 C 
DOCKED: ATOM     18  C   UNL     1      14.276 -13.938 -11.016 -0.25 +0.00    +0.000 C 
DOCKED: ENDBRANCH  13  17
DOCKED: ENDBRANCH  12  13
DOCKED: ENDBRANCH   7  12
DOCKED: ENDBRANCH   1   2
DOCKED: BRANCH   1  19
DOCKED: ATOM     19  O   UNL     1      22.135  -8.833  -5.043 -0.35 -0.00    +0.000 OA
DOCKED: BRANCH  19  21
DOCKED: ATOM     20  O   UNL     1      21.043  -7.917  -3.229 -0.42 -0.00    +0.000 OA
DOCKED: ATOM     21  C   UNL     1      21.578  -8.927  -3.764 -0.37 -0.00    +0.000 C 
DOCKED: ATOM     22  N   UNL     1      21.666 -10.170  -3.055 -0.49 -0.00    +0.000 N 
DOCKED: ATOM     23  H   UNL     1      22.195 -10.895  -3.462 -0.05 -0.00    +0.000 HD
DOCKED: BRANCH  22  24
DOCKED: ATOM     24  C   UNL     1      21.032 -10.430  -1.792 -0.53 -0.00    +0.000 A 
DOCKED: ATOM     25  C   UNL     1      21.767 -10.273  -0.608 -0.54 -0.00    +0.000 A 
DOCKED: ATOM     26  C   UNL     1      21.184 -10.544   0.632 -0.45 -0.00    +0.000 A 
DOCKED: ATOM     27  C   UNL     1      19.855 -11.002   0.712 -0.58 -0.00    +0.000 A 
DOCKED: ATOM     28  C   UNL     1      19.122 -11.166  -0.477 -0.45 -0.00    +0.000 A 
DOCKED: ATOM     29  C   UNL     1      19.708 -10.893  -1.717 -0.39 -0.00    +0.000 A 
DOCKED: BRANCH  27  30
DOCKED: ATOM     30  C   UNL     1      19.219 -11.298   2.021 -0.67 -0.00    +0.000 C 
DOCKED: ATOM     31  N   UNL     1      17.938 -10.760   2.367 -0.47 +0.00    +0.000 N 
DOCKED: ATOM     32  O   UNL     1      17.335 -11.128   3.520 -0.52 +0.00    +0.000 OA
DOCKED: ATOM     33  O   UNL     1      19.823 -12.027   2.854 -1.58 -0.00    +0.000 OA
DOCKED: ATOM     34  H   UNL     1      17.495 -10.121   1.763 -0.01 -0.00    +0.000 HD
DOCKED: ENDBRANCH  27  30
DOCKED: ENDBRANCH  22  24
DOCKED: ENDBRANCH  19  21
DOCKED: ENDBRANCH   1  19
DOCKED: TORSDOF 9
DOCKED: TER
DOCKED: ENDMDL
________________________________________________________________________________


	BEGINNING GENETIC ALGORITHM DOCKING 17 of 100
Run: 17 Seed: 529736356 77402035 [ Run 17 of 100 GA/GALS ]
Beginning LAMARCKIAN GENETIC ALGORITHM (LGA), with a maximum of 2500000 energy evaluations.

Final-Value: -15.528


	FINAL GENETIC ALGORITHM DOCKED STATE
	_______________________________________________


Detailed state:  trans 19.326 -9.370 -4.457 quatxyzw -0.304142 -0.335892 -0.107755 0.884908 center 1.619 0.086 0.013 ntor 9 158.6477 55.0155 77.0483 -122.8550 113.1129 70.1122 -93.8140 161.3929 162.9827
State:	 19.326  -9.370  -4.457  -0.653 -0.721 -0.231 55.519    158.65   55.02   77.05 -122.85  113.11   70.11  -93.81  161.39  162.98

DOCKED: MODEL       17
DOCKED: USER    Run = 17
DOCKED: USER    DPF = ligand_dock.biased.dpf
DOCKED: USER  
DOCKED: USER    Estimated Free Energy of Binding    =  -10.12 kcal/mol  [=(1)+(2)+(3)-(4)]
DOCKED: USER    Estimated Inhibition Constant, Ki   =   38.37 nM (nanomolar)  [Temperature = 298.15 K]
DOCKED: USER    
DOCKED: USER    (1) Final Intermolecular Energy     =  -12.80 kcal/mol
DOCKED: USER        vdW + Hbond + desolv Energy     =  -12.80 kcal/mol
DOCKED: USER        Electrostatic Energy            =   +0.00 kcal/mol
DOCKED: USER    (2) Final Total Internal Energy     =   -2.73 kcal/mol
DOCKED: USER    (3) Torsional Free Energy           =   +2.68 kcal/mol
DOCKED: USER    (4) Unbound System's Energy  [=(2)] =   -2.73 kcal/mol
DOCKED: USER    
DOCKED: USER    
DOCKED: USER    NEWDPF move ligand.pdbqt
DOCKED: USER    NEWDPF about 1.619000 0.086000 0.013000
DOCKED: USER    NEWDPF tran0 19.325896 -9.369918 -4.457238
DOCKED: USER    NEWDPF quaternion0 -0.304142 -0.335892 -0.107755 0.884908
DOCKED: USER    NEWDPF axisangle0 -0.652994 -0.721162 -0.231351 55.519497
DOCKED: USER    NEWDPF quat0 -0.652994 -0.721162 -0.231351 55.519497
DOCKED: USER    NEWDPF dihe0 158.65 55.02 77.05 -122.85 113.11 70.11 -93.81 161.39 162.98 
DOCKED: USER  keepresnum = 1 
DOCKED: USER  
DOCKED: REMARK  Name = 
DOCKED: REMARK  11 active torsions:
DOCKED: REMARK  status: ('A' for Active; 'I' for Inactive)
DOCKED: REMARK    1  A    between atoms: C_2  and  O_3
DOCKED: REMARK    2  A    between atoms: O_3  and  C_4
DOCKED: REMARK    3  A    between atoms: C_4  and  C_5
DOCKED: REMARK    4  A    between atoms: C_10  and  C_11
DOCKED: REMARK    5  A    between atoms: C_11  and  N_12
DOCKED: REMARK    6  A    between atoms: N_12  and  C_13
DOCKED: REMARK    7  A    between atoms: N_12  and  C_15
DOCKED: REMARK    8  A    between atoms: C_13  and  C_14
DOCKED: REMARK    9  A    between atoms: C_15  and  C_16
DOCKED: REMARK   10  A    between atoms: N_21  and  C_22
DOCKED: REMARK   11  A    between atoms: C_25  and  C_26
DOCKED: REMARK                            x       y       z     vdW  Elec       q    Type
DOCKED: REMARK                         _______ _______ _______ _____ _____    ______ ____
DOCKED: USER                              x       y       z     vdW  Elec       q    Type
DOCKED: USER                           _______ _______ _______ _____ _____    ______ ____
DOCKED: ROOT
DOCKED: ATOM      1  C   UNL     1      18.042  -8.394  -6.228 -0.11 -0.00    +0.000 C 
DOCKED: ENDROOT
DOCKED: BRANCH   1   2
DOCKED: ATOM      2  C   UNL     1      17.048  -9.000  -5.280 -0.14 -0.00    +0.000 A 
DOCKED: ATOM      3  C   UNL     1      16.720 -10.362  -5.363 -0.22 -0.00    +0.000 A 
DOCKED: ATOM      4  C   UNL     1      15.781 -10.918  -4.490 -0.14 -0.00    +0.000 A 
DOCKED: ATOM      5  C   UNL     1      15.145 -10.116  -3.532 -0.22 -0.00    +0.000 A 
DOCKED: ATOM      6  C   UNL     1      14.194 -10.664  -2.657 -0.27 -0.00    +0.000 A 
DOCKED: ATOM      7  C   UNL     1      13.534  -9.850  -1.722 -0.21 -0.00    +0.000 A 
DOCKED: ATOM      8  C   UNL     1      13.865  -8.488  -1.639 -0.17 -0.00    +0.000 A 
DOCKED: ATOM      9  C   UNL     1      14.818  -7.935  -2.500 -0.10 -0.00    +0.000 A 
DOCKED: ATOM     10  C   UNL     1      15.460  -8.739  -3.453 -0.17 -0.00    +0.000 A 
DOCKED: ATOM     11  C   UNL     1      16.410  -8.190  -4.327 -0.12 -0.00    +0.000 A 
DOCKED: BRANCH   7  12
DOCKED: ATOM     12  C   UNL     1      12.522 -10.448  -0.779 -0.28 +0.00    +0.000 C 
DOCKED: BRANCH  12  13
DOCKED: ATOM     13  N   UNL     1      13.150 -11.457   0.102 -0.36 +0.00    +0.000 N 
DOCKED: ATOM     14  H   UNL     1      13.230 -12.263  -0.518 -0.03 +0.00    +0.000 HD
DOCKED: BRANCH  13  15
DOCKED: ATOM     15  C   UNL     1      14.543 -11.146   0.487 -0.36 +0.00    +0.000 C 
DOCKED: ATOM     16  C   UNL     1      15.520 -12.300   0.250 -0.52 +0.00    +0.000 C 
DOCKED: ENDBRANCH  13  15
DOCKED: BRANCH  13  17
DOCKED: ATOM     17  C   UNL     1      12.305 -12.017   1.188 -0.39 +0.00    +0.000 C 
DOCKED: ATOM     18  C   UNL     1      10.805 -11.720   1.057 -0.43 +0.00    +0.000 C 
DOCKED: ENDBRANCH  13  17
DOCKED: ENDBRANCH  12  13
DOCKED: ENDBRANCH   7  12
DOCKED: ENDBRANCH   1   2
DOCKED: BRANCH   1  19
DOCKED: ATOM     19  O   UNL     1      19.349  -8.513  -5.677 -0.14 -0.00    +0.000 OA
DOCKED: BRANCH  19  21
DOCKED: ATOM     20  O   UNL     1      19.773  -7.725  -3.551 -0.25 -0.00    +0.000 OA
DOCKED: ATOM     21  C   UNL     1      19.580  -8.712  -4.313 -0.25 -0.00    +0.000 C 
DOCKED: ATOM     22  N   UNL     1      19.641 -10.052  -3.805 -0.32 -0.00    +0.000 N 
DOCKED: ATOM     23  H   UNL     1      19.604 -10.792  -4.454 -0.01 -0.00    +0.000 HD
DOCKED: BRANCH  22  24
DOCKED: ATOM     24  C   UNL     1      19.751 -10.387  -2.412 -0.40 -0.00    +0.000 A 
DOCKED: ATOM     25  C   UNL     1      20.981 -10.219  -1.759 -0.54 -0.00    +0.000 A 
DOCKED: ATOM     26  C   UNL     1      21.124 -10.561  -0.412 -0.61 -0.00    +0.000 A 
DOCKED: ATOM     27  C   UNL     1      20.041 -11.101   0.306 -0.57 -0.00    +0.000 A 
DOCKED: ATOM     28  C   UNL     1      18.811 -11.276  -0.353 -0.44 -0.00    +0.000 A 
DOCKED: ATOM     29  C   UNL     1      18.670 -10.932  -1.700 -0.36 -0.00    +0.000 A 
DOCKED: BRANCH  27  30
DOCKED: ATOM     30  C   UNL     1      20.174 -11.474   1.737 -0.76 -0.00    +0.000 C 
DOCKED: ATOM     31  N   UNL     1      20.632 -10.533   2.714 -0.61 -0.00    +0.000 N 
DOCKED: ATOM     32  O   UNL     1      20.645 -10.866   4.025 -1.07 -0.00    +0.000 OA
DOCKED: ATOM     33  O   UNL     1      19.891 -12.648   2.102 -1.66 -0.00    +0.000 OA
DOCKED: ATOM     34  H   UNL     1      20.938  -9.642   2.431 -0.56 -0.00    +0.000 HD
DOCKED: ENDBRANCH  27  30
DOCKED: ENDBRANCH  22  24
DOCKED: ENDBRANCH  19  21
DOCKED: ENDBRANCH   1  19
DOCKED: TORSDOF 9
DOCKED: TER
DOCKED: ENDMDL
________________________________________________________________________________


	BEGINNING GENETIC ALGORITHM DOCKING 18 of 100
Run: 18 Seed: 1940175882 1345922369 [ Run 18 of 100 GA/GALS ]
Beginning LAMARCKIAN GENETIC ALGORITHM (LGA), with a maximum of 2500000 energy evaluations.

Final-Value: -15.236


	FINAL GENETIC ALGORITHM DOCKED STATE
	_______________________________________________


Detailed state:  trans 18.982 -9.703 1.864 quatxyzw 0.135339 0.631862 0.422589 0.635494 center 1.619 0.086 0.013 ntor 9 -43.2185 -152.4290 153.6011 82.3139 132.4165 -74.4369 175.2421 -91.6321 -27.9734
State:	 18.982  -9.703   1.864   0.175  0.818  0.547 101.087    -43.22 -152.43  153.60   82.31  132.42  -74.44  175.24  -91.63  -27.97

DOCKED: MODEL       18
DOCKED: USER    Run = 18
DOCKED: USER    DPF = ligand_dock.biased.dpf
DOCKED: USER  
DOCKED: USER    Estimated Free Energy of Binding    =  -10.70 kcal/mol  [=(1)+(2)+(3)-(4)]
DOCKED: USER    Estimated Inhibition Constant, Ki   =   14.32 nM (nanomolar)  [Temperature = 298.15 K]
DOCKED: USER    
DOCKED: USER    (1) Final Intermolecular Energy     =  -13.39 kcal/mol
DOCKED: USER        vdW + Hbond + desolv Energy     =  -13.39 kcal/mol
DOCKED: USER        Electrostatic Energy            =   +0.00 kcal/mol
DOCKED: USER    (2) Final Total Internal Energy     =   -1.85 kcal/mol
DOCKED: USER    (3) Torsional Free Energy           =   +2.68 kcal/mol
DOCKED: USER    (4) Unbound System's Energy  [=(2)] =   -1.85 kcal/mol
DOCKED: USER    
DOCKED: USER    
DOCKED: USER    NEWDPF move ligand.pdbqt
DOCKED: USER    NEWDPF about 1.619000 0.086000 0.013000
DOCKED: USER    NEWDPF tran0 18.981540 -9.702599 1.863944
DOCKED: USER    NEWDPF quaternion0 0.135339 0.631862 0.422589 0.635494
DOCKED: USER    NEWDPF axisangle0 0.175286 0.818362 0.547319 101.086761
DOCKED: USER    NEWDPF quat0 0.175286 0.818362 0.547319 101.086761
DOCKED: USER    NEWDPF dihe0 -43.22 -152.43 153.60 82.31 132.42 -74.44 175.24 -91.63 -27.97 
DOCKED: USER  keepresnum = 1 
DOCKED: USER  
DOCKED: REMARK  Name = 
DOCKED: REMARK  11 active torsions:
DOCKED: REMARK  status: ('A' for Active; 'I' for Inactive)
DOCKED: REMARK    1  A    between atoms: C_2  and  O_3
DOCKED: REMARK    2  A    between atoms: O_3  and  C_4
DOCKED: REMARK    3  A    between atoms: C_4  and  C_5
DOCKED: REMARK    4  A    between atoms: C_10  and  C_11
DOCKED: REMARK    5  A    between atoms: C_11  and  N_12
DOCKED: REMARK    6  A    between atoms: N_12  and  C_13
DOCKED: REMARK    7  A    between atoms: N_12  and  C_15
DOCKED: REMARK    8  A    between atoms: C_13  and  C_14
DOCKED: REMARK    9  A    between atoms: C_15  and  C_16
DOCKED: REMARK   10  A    between atoms: N_21  and  C_22
DOCKED: REMARK   11  A    between atoms: C_25  and  C_26
DOCKED: REMARK                            x       y       z     vdW  Elec       q    Type
DOCKED: REMARK                         _______ _______ _______ _____ _____    ______ ____
DOCKED: USER                              x       y       z     vdW  Elec       q    Type
DOCKED: USER                           _______ _______ _______ _____ _____    ______ ____
DOCKED: ROOT
DOCKED: ATOM      1  C   UNL     1      20.311 -11.688   1.688 -0.78 -0.00    +0.000 C 
DOCKED: ENDROOT
DOCKED: BRANCH   1   2
DOCKED: ATOM      2  C   UNL     1      20.475 -10.961   0.384 -0.60 -0.00    +0.000 A 
DOCKED: ATOM      3  C   UNL     1      21.434  -9.947   0.247 -0.54 -0.00    +0.000 A 
DOCKED: ATOM      4  C   UNL     1      21.572  -9.260  -0.963 -0.39 -0.00    +0.000 A 
DOCKED: ATOM      5  C   UNL     1      20.740  -9.571  -2.049 -0.49 -0.00    +0.000 A 
DOCKED: ATOM      6  C   UNL     1      20.864  -8.881  -3.265 -0.39 -0.00    +0.000 A 
DOCKED: ATOM      7  C   UNL     1      20.007  -9.170  -4.338 -0.26 -0.00    +0.000 A 
DOCKED: ATOM      8  C   UNL     1      19.049 -10.188  -4.201 -0.30 -0.00    +0.000 A 
DOCKED: ATOM      9  C   UNL     1      18.924 -10.886  -2.996 -0.30 -0.00    +0.000 A 
DOCKED: ATOM     10  C   UNL     1      19.761 -10.582  -1.913 -0.42 -0.00    +0.000 A 
DOCKED: ATOM     11  C   UNL     1      19.635 -11.272  -0.697 -0.39 -0.00    +0.000 A 
DOCKED: BRANCH   7  12
DOCKED: ATOM     12  C   UNL     1      20.154  -8.433  -5.645 -0.17 -0.00    +0.000 C 
DOCKED: BRANCH  12  13
DOCKED: ATOM     13  N   UNL     1      21.236  -9.019  -6.466 -0.18 -0.00    +0.000 N 
DOCKED: ATOM     14  H   UNL     1      20.764  -9.185  -7.355 +0.00 -0.00    +0.000 HD
DOCKED: BRANCH  13  15
DOCKED: ATOM     15  C   UNL     1      22.328  -8.078  -6.795 -0.18 -0.00    +0.000 C 
DOCKED: ATOM     16  C   UNL     1      22.537  -6.985  -5.745 -0.17 -0.00    +0.000 C 
DOCKED: ENDBRANCH  13  15
DOCKED: BRANCH  13  17
DOCKED: ATOM     17  C   UNL     1      21.673 -10.395  -6.116 -0.39 -0.00    +0.000 C 
DOCKED: ATOM     18  C   UNL     1      22.541 -11.086  -7.177 -0.42 -0.00    +0.000 C 
DOCKED: ENDBRANCH  13  17
DOCKED: ENDBRANCH  12  13
DOCKED: ENDBRANCH   7  12
DOCKED: ENDBRANCH   1   2
DOCKED: BRANCH   1  19
DOCKED: ATOM     19  O   UNL     1      19.539 -10.888   2.577 -0.89 -0.00    +0.000 OA
DOCKED: BRANCH  19  21
DOCKED: ATOM     20  O   UNL     1      17.507 -10.233   3.451 -0.40 +0.00    +0.000 OA
DOCKED: ATOM     21  C   UNL     1      18.141 -10.909   2.594 -0.55 -0.00    +0.000 C 
DOCKED: ATOM     22  N   UNL     1      17.446 -11.743   1.658 -0.43 +0.00    +0.000 N 
DOCKED: ATOM     23  H   UNL     1      17.982 -12.342   1.089 -0.03 +0.00    +0.000 HD
DOCKED: BRANCH  22  24
DOCKED: ATOM     24  C   UNL     1      16.018 -11.763   1.494 -0.40 +0.00    +0.000 A 
DOCKED: ATOM     25  C   UNL     1      15.474 -11.870   0.205 -0.40 +0.00    +0.000 A 
DOCKED: ATOM     26  C   UNL     1      14.091 -11.865   0.014 -0.39 +0.00    +0.000 A 
DOCKED: ATOM     27  C   UNL     1      13.219 -11.730   1.111 -0.39 +0.00    +0.000 A 
DOCKED: ATOM     28  C   UNL     1      13.766 -11.616   2.402 -0.35 +0.00    +0.000 A 
DOCKED: ATOM     29  C   UNL     1      15.151 -11.622   2.590 -0.46 +0.00    +0.000 A 
DOCKED: BRANCH  27  30
DOCKED: ATOM     30  C   UNL     1      11.746 -11.720   0.929 -0.42 +0.00    +0.000 C 
DOCKED: ATOM     31  N   UNL     1      10.888 -12.541   1.730 -0.46 +0.00    +0.000 N 
DOCKED: ATOM     32  O   UNL     1       9.545 -12.436   1.614 -0.51 +0.00    +0.000 OA
DOCKED: ATOM     33  O   UNL     1      11.234 -10.984   0.041 -0.34 +0.00    +0.000 OA
DOCKED: ATOM     34  H   UNL     1      11.278 -13.183   2.365 -0.61 +0.00    +0.000 HD
DOCKED: ENDBRANCH  27  30
DOCKED: ENDBRANCH  22  24
DOCKED: ENDBRANCH  19  21
DOCKED: ENDBRANCH   1  19
DOCKED: TORSDOF 9
DOCKED: TER
DOCKED: ENDMDL
________________________________________________________________________________


	BEGINNING GENETIC ALGORITHM DOCKING 19 of 100
Run: 19 Seed: 1380312331 1846795840 [ Run 19 of 100 GA/GALS ]
Beginning LAMARCKIAN GENETIC ALGORITHM (LGA), with a maximum of 2500000 energy evaluations.

Final-Value: -16.026


	FINAL GENETIC ALGORITHM DOCKED STATE
	_______________________________________________


Detailed state:  trans 22.196 -9.291 -5.830 quatxyzw -0.126209 -0.381506 -0.915693 -0.005610 center 1.619 0.086 0.013 ntor 9 -87.7948 129.0254 -109.1567 -20.1500 139.9036 44.5229 12.2424 97.1453 32.9952
State:	 22.196  -9.291  -5.830  -0.126 -0.382 -0.916 -179.357    -87.79  129.03 -109.16  -20.15  139.90   44.52   12.24   97.15   33.00

DOCKED: MODEL       19
DOCKED: USER    Run = 19
DOCKED: USER    DPF = ligand_dock.biased.dpf
DOCKED: USER  
DOCKED: USER    Estimated Free Energy of Binding    =  -11.69 kcal/mol  [=(1)+(2)+(3)-(4)]
DOCKED: USER    Estimated Inhibition Constant, Ki   =    2.68 nM (nanomolar)  [Temperature = 298.15 K]
DOCKED: USER    
DOCKED: USER    (1) Final Intermolecular Energy     =  -14.38 kcal/mol
DOCKED: USER        vdW + Hbond + desolv Energy     =  -14.38 kcal/mol
DOCKED: USER        Electrostatic Energy            =   +0.00 kcal/mol
DOCKED: USER    (2) Final Total Internal Energy     =   -1.65 kcal/mol
DOCKED: USER    (3) Torsional Free Energy           =   +2.68 kcal/mol
DOCKED: USER    (4) Unbound System's Energy  [=(2)] =   -1.65 kcal/mol
DOCKED: USER    
DOCKED: USER    
DOCKED: USER    NEWDPF move ligand.pdbqt
DOCKED: USER    NEWDPF about 1.619000 0.086000 0.013000
DOCKED: USER    NEWDPF tran0 22.195597 -9.290645 -5.829738
DOCKED: USER    NEWDPF quaternion0 -0.126209 -0.381506 -0.915693 -0.005610
DOCKED: USER    NEWDPF axisangle0 -0.126211 -0.381512 -0.915707 -179.357165
DOCKED: USER    NEWDPF quat0 -0.126211 -0.381512 -0.915707 -179.357165
DOCKED: USER    NEWDPF dihe0 -87.79 129.03 -109.16 -20.15 139.90 44.52 12.24 97.15 33.00 
DOCKED: USER  keepresnum = 1 
DOCKED: USER  
DOCKED: REMARK  Name = 
DOCKED: REMARK  11 active torsions:
DOCKED: REMARK  status: ('A' for Active; 'I' for Inactive)
DOCKED: REMARK    1  A    between atoms: C_2  and  O_3
DOCKED: REMARK    2  A    between atoms: O_3  and  C_4
DOCKED: REMARK    3  A    between atoms: C_4  and  C_5
DOCKED: REMARK    4  A    between atoms: C_10  and  C_11
DOCKED: REMARK    5  A    between atoms: C_11  and  N_12
DOCKED: REMARK    6  A    between atoms: N_12  and  C_13
DOCKED: REMARK    7  A    between atoms: N_12  and  C_15
DOCKED: REMARK    8  A    between atoms: C_13  and  C_14
DOCKED: REMARK    9  A    between atoms: C_15  and  C_16
DOCKED: REMARK   10  A    between atoms: N_21  and  C_22
DOCKED: REMARK   11  A    between atoms: C_25  and  C_26
DOCKED: REMARK                            x       y       z     vdW  Elec       q    Type
DOCKED: REMARK                         _______ _______ _______ _____ _____    ______ ____
DOCKED: USER                              x       y       z     vdW  Elec       q    Type
DOCKED: USER                           _______ _______ _______ _____ _____    ______ ____
DOCKED: ROOT
DOCKED: ATOM      1  C   UNL     1      21.282 -10.671  -7.561 -0.28 -0.00    +0.000 C 
DOCKED: ENDROOT
DOCKED: BRANCH   1   2
DOCKED: ATOM      2  C   UNL     1      22.774 -10.730  -7.727 -0.30 -0.00    +0.000 A 
DOCKED: ATOM      3  C   UNL     1      23.397 -11.903  -8.177 -0.41 -0.00    +0.000 A 
DOCKED: ATOM      4  C   UNL     1      24.787 -11.959  -8.313 -0.42 -0.00    +0.000 A 
DOCKED: ATOM      5  C   UNL     1      25.574 -10.845  -7.986 -0.35 -0.00    +0.000 A 
DOCKED: ATOM      6  C   UNL     1      26.971 -10.895  -8.110 -0.26 -0.00    +0.000 A 
DOCKED: ATOM      7  C   UNL     1      27.757  -9.790  -7.748 -0.41 -0.00    +0.000 A 
DOCKED: ATOM      8  C   UNL     1      27.132  -8.615  -7.300 -0.31 -0.00    +0.000 A 
DOCKED: ATOM      9  C   UNL     1      25.740  -8.554  -7.181 -0.24 -0.00    +0.000 A 
DOCKED: ATOM     10  C   UNL     1      24.953  -9.664  -7.516 -0.26 -0.00    +0.000 A 
DOCKED: ATOM     11  C   UNL     1      23.556  -9.614  -7.391 -0.24 -0.00    +0.000 A 
DOCKED: BRANCH   7  12
DOCKED: ATOM     12  C   UNL     1      29.257  -9.847  -7.895 -0.46 -0.00    +0.000 C 
DOCKED: BRANCH  12  13
DOCKED: ATOM     13  N   UNL     1      29.675  -9.396  -9.240 -0.21 -0.00    +0.000 N 
DOCKED: ATOM     14  H   UNL     1      28.900  -8.791  -9.514 +0.00 -0.00    +0.000 HD
DOCKED: BRANCH  13  15
DOCKED: ATOM     15  C   UNL     1      30.857  -8.507  -9.243 -0.14 -0.00    +0.000 C 
DOCKED: ATOM     16  C   UNL     1      31.192  -7.922  -7.869 -0.17 -0.00    +0.000 C 
DOCKED: ENDBRANCH  13  15
DOCKED: BRANCH  13  17
DOCKED: ATOM     17  C   UNL     1      29.643 -10.408 -10.327 -0.29 -0.00    +0.000 C 
DOCKED: ATOM     18  C   UNL     1      28.295 -10.536 -11.050 -0.23 -0.00    +0.000 C 
DOCKED: ENDBRANCH  13  17
DOCKED: ENDBRANCH  12  13
DOCKED: ENDBRANCH   7  12
DOCKED: ENDBRANCH   1   2
DOCKED: BRANCH   1  19
DOCKED: ATOM     19  O   UNL     1      20.969  -9.930  -6.387 -0.26 -0.00    +0.000 OA
DOCKED: BRANCH  19  21
DOCKED: ATOM     20  O   UNL     1      21.424 -11.655  -4.924 -0.63 -0.00    +0.000 OA
DOCKED: ATOM     21  C   UNL     1      20.936 -10.507  -5.114 -0.45 -0.00    +0.000 C 
DOCKED: ATOM     22  N   UNL     1      20.300  -9.795  -4.044 -0.32 -0.00    +0.000 N 
DOCKED: ATOM     23  H   UNL     1      19.829  -8.958  -4.263 +0.00 -0.00    +0.000 HD
DOCKED: BRANCH  22  24
DOCKED: ATOM     24  C   UNL     1      20.304 -10.222  -2.671 -0.44 -0.00    +0.000 A 
DOCKED: ATOM     25  C   UNL     1      19.173 -10.866  -2.147 -0.38 -0.00    +0.000 A 
DOCKED: ATOM     26  C   UNL     1      19.140 -11.268  -0.810 -0.43 -0.00    +0.000 A 
DOCKED: ATOM     27  C   UNL     1      20.232 -11.012   0.040 -0.55 -0.00    +0.000 A 
DOCKED: ATOM     28  C   UNL     1      21.362 -10.360  -0.486 -0.63 -0.00    +0.000 A 
DOCKED: ATOM     29  C   UNL     1      21.393  -9.959  -1.824 -0.53 -0.00    +0.000 A 
DOCKED: BRANCH  27  30
DOCKED: ATOM     30  C   UNL     1      20.214 -11.429   1.465 -0.75 -0.00    +0.000 C 
DOCKED: ATOM     31  N   UNL     1      20.578 -10.523   2.513 -0.61 -0.00    +0.000 N 
DOCKED: ATOM     32  O   UNL     1      20.455 -10.896   3.807 -1.17 -0.00    +0.000 OA
DOCKED: ATOM     33  O   UNL     1      19.885 -12.610   1.763 -1.68 -0.00    +0.000 OA
DOCKED: ATOM     34  H   UNL     1      20.919  -9.628   2.290 -0.56 -0.00    +0.000 HD
DOCKED: ENDBRANCH  27  30
DOCKED: ENDBRANCH  22  24
DOCKED: ENDBRANCH  19  21
DOCKED: ENDBRANCH   1  19
DOCKED: TORSDOF 9
DOCKED: TER
DOCKED: ENDMDL
________________________________________________________________________________


	BEGINNING GENETIC ALGORITHM DOCKING 20 of 100
Run: 20 Seed: 1061028930 1891851902 [ Run 20 of 100 GA/GALS ]
Beginning LAMARCKIAN GENETIC ALGORITHM (LGA), with a maximum of 2500000 energy evaluations.

Final-Value: -14.909


	FINAL GENETIC ALGORITHM DOCKED STATE
	_______________________________________________


Detailed state:  trans 21.585 -10.785 -4.948 quatxyzw 0.062277 0.215787 -0.735145 -0.639625 center 1.619 0.086 0.013 ntor 9 -157.5911 -71.8750 -52.1546 -30.7122 -35.3037 -83.5979 112.2879 -119.7169 -29.9399
State:	 21.585 -10.785  -4.948   0.081  0.281 -0.956 -100.472   -157.59  -71.88  -52.15  -30.71  -35.30  -83.60  112.29 -119.72  -29.94

DOCKED: MODEL       20
DOCKED: USER    Run = 20
DOCKED: USER    DPF = ligand_dock.biased.dpf
DOCKED: USER  
DOCKED: USER    Estimated Free Energy of Binding    =  -10.12 kcal/mol  [=(1)+(2)+(3)-(4)]
DOCKED: USER    Estimated Inhibition Constant, Ki   =   38.27 nM (nanomolar)  [Temperature = 298.15 K]
DOCKED: USER    
DOCKED: USER    (1) Final Intermolecular Energy     =  -12.80 kcal/mol
DOCKED: USER        vdW + Hbond + desolv Energy     =  -12.80 kcal/mol
DOCKED: USER        Electrostatic Energy            =   +0.00 kcal/mol
DOCKED: USER    (2) Final Total Internal Energy     =   -2.11 kcal/mol
DOCKED: USER    (3) Torsional Free Energy           =   +2.68 kcal/mol
DOCKED: USER    (4) Unbound System's Energy  [=(2)] =   -2.11 kcal/mol
DOCKED: USER    
DOCKED: USER    
DOCKED: USER    NEWDPF move ligand.pdbqt
DOCKED: USER    NEWDPF about 1.619000 0.086000 0.013000
DOCKED: USER    NEWDPF tran0 21.584574 -10.785133 -4.948289
DOCKED: USER    NEWDPF quaternion0 0.062277 0.215787 -0.735145 -0.639625
DOCKED: USER    NEWDPF axisangle0 0.081017 0.280721 -0.956364 -100.472347
DOCKED: USER    NEWDPF quat0 0.081017 0.280721 -0.956364 -100.472347
DOCKED: USER    NEWDPF dihe0 -157.59 -71.88 -52.15 -30.71 -35.30 -83.60 112.29 -119.72 -29.94 
DOCKED: USER  keepresnum = 1 
DOCKED: USER  
DOCKED: REMARK  Name = 
DOCKED: REMARK  11 active torsions:
DOCKED: REMARK  status: ('A' for Active; 'I' for Inactive)
DOCKED: REMARK    1  A    between atoms: C_2  and  O_3
DOCKED: REMARK    2  A    between atoms: O_3  and  C_4
DOCKED: REMARK    3  A    between atoms: C_4  and  C_5
DOCKED: REMARK    4  A    between atoms: C_10  and  C_11
DOCKED: REMARK    5  A    between atoms: C_11  and  N_12
DOCKED: REMARK    6  A    between atoms: N_12  and  C_13
DOCKED: REMARK    7  A    between atoms: N_12  and  C_15
DOCKED: REMARK    8  A    between atoms: C_13  and  C_14
DOCKED: REMARK    9  A    between atoms: C_15  and  C_16
DOCKED: REMARK   10  A    between atoms: N_21  and  C_22
DOCKED: REMARK   11  A    between atoms: C_25  and  C_26
DOCKED: REMARK                            x       y       z     vdW  Elec       q    Type
DOCKED: REMARK                         _______ _______ _______ _____ _____    ______ ____
DOCKED: USER                              x       y       z     vdW  Elec       q    Type
DOCKED: USER                           _______ _______ _______ _____ _____    ______ ____
DOCKED: ROOT
DOCKED: ATOM      1  C   UNL     1      20.774 -10.152  -7.112 -0.27 -0.00    +0.000 C 
DOCKED: ENDROOT
DOCKED: BRANCH   1   2
DOCKED: ATOM      2  C   UNL     1      21.149  -8.874  -6.419 -0.17 -0.00    +0.000 A 
DOCKED: ATOM      3  C   UNL     1      22.479  -8.428  -6.413 -0.19 -0.00    +0.000 A 
DOCKED: ATOM      4  C   UNL     1      22.827  -7.246  -5.751 -0.06 -0.00    +0.000 A 
DOCKED: ATOM      5  C   UNL     1      21.850  -6.503  -5.074 -0.17 -0.00    +0.000 A 
DOCKED: ATOM      6  C   UNL     1      22.192  -5.321  -4.399 -0.17 -0.00    +0.000 A 
DOCKED: ATOM      7  C   UNL     1      21.217  -4.597  -3.693 -0.18 -0.00    +0.000 A 
DOCKED: ATOM      8  C   UNL     1      19.885  -5.043  -3.703 -0.16 -0.00    +0.000 A 
DOCKED: ATOM      9  C   UNL     1      19.535  -6.215  -4.379 -0.14 -0.00    +0.000 A 
DOCKED: ATOM     10  C   UNL     1      20.509  -6.955  -5.063 -0.16 -0.00    +0.000 A 
DOCKED: ATOM     11  C   UNL     1      20.168  -8.137  -5.737 -0.13 -0.00    +0.000 A 
DOCKED: BRANCH   7  12
DOCKED: ATOM     12  C   UNL     1      21.589  -3.322  -2.980 -0.17 -0.00    +0.000 C 
DOCKED: BRANCH  12  13
DOCKED: ATOM     13  N   UNL     1      22.093  -3.605  -1.618 -0.30 +0.00    +0.000 N 
DOCKED: ATOM     14  H   UNL     1      22.269  -4.609  -1.658 -0.03 +0.00    +0.000 HD
DOCKED: BRANCH  13  15
DOCKED: ATOM     15  C   UNL     1      23.414  -3.010  -1.322 -0.32 +0.00    +0.000 C 
DOCKED: ATOM     16  C   UNL     1      24.594  -3.873  -1.774 -0.36 -0.00    +0.000 C 
DOCKED: ENDBRANCH  13  15
DOCKED: BRANCH  13  17
DOCKED: ATOM     17  C   UNL     1      21.107  -3.534  -0.509 -0.42 +0.00    +0.000 C 
DOCKED: ATOM     18  C   UNL     1      21.343  -2.395   0.492 -0.44 -0.00    +0.000 C 
DOCKED: ENDBRANCH  13  17
DOCKED: ENDBRANCH  12  13
DOCKED: ENDBRANCH   7  12
DOCKED: ENDBRANCH   1   2
DOCKED: BRANCH   1  19
DOCKED: ATOM     19  O   UNL     1      21.143 -11.256  -6.292 -0.42 -0.00    +0.000 OA
DOCKED: BRANCH  19  21
DOCKED: ATOM     20  O   UNL     1      19.895 -12.392  -4.720 -0.74 -0.00    +0.000 OA
DOCKED: ATOM     21  C   UNL     1      20.662 -11.427  -4.991 -0.53 -0.00    +0.000 C 
DOCKED: ATOM     22  N   UNL     1      21.014 -10.466  -3.987 -0.45 -0.00    +0.000 N 
DOCKED: ATOM     23  H   UNL     1      21.515  -9.667  -4.270 -0.02 -0.00    +0.000 HD
DOCKED: BRANCH  22  24
DOCKED: ATOM     24  C   UNL     1      20.685 -10.592  -2.593 -0.45 -0.00    +0.000 A 
DOCKED: ATOM     25  C   UNL     1      21.684 -10.392  -1.629 -0.39 -0.00    +0.000 A 
DOCKED: ATOM     26  C   UNL     1      21.399 -10.534  -0.269 -0.63 -0.00    +0.000 A 
DOCKED: ATOM     27  C   UNL     1      20.108 -10.903   0.155 -0.57 -0.00    +0.000 A 
DOCKED: ATOM     28  C   UNL     1      19.110 -11.110  -0.814 -0.43 -0.00    +0.000 A 
DOCKED: ATOM     29  C   UNL     1      19.398 -10.967  -2.174 -0.36 -0.00    +0.000 A 
DOCKED: BRANCH  27  30
DOCKED: ATOM     30  C   UNL     1      19.786 -11.062   1.596 -0.69 -0.00    +0.000 C 
DOCKED: ATOM     31  N   UNL     1      20.237 -12.198   2.342 -0.72 -0.00    +0.000 N 
DOCKED: ATOM     32  O   UNL     1      20.018 -12.267   3.674 -1.30 -0.00    +0.000 OA
DOCKED: ATOM     33  O   UNL     1      19.088 -10.186   2.176 -0.66 -0.00    +0.000 OA
DOCKED: ATOM     34  H   UNL     1      20.707 -12.930   1.882 -0.61 -0.00    +0.000 HD
DOCKED: ENDBRANCH  27  30
DOCKED: ENDBRANCH  22  24
DOCKED: ENDBRANCH  19  21
DOCKED: ENDBRANCH   1  19
DOCKED: TORSDOF 9
DOCKED: TER
DOCKED: ENDMDL
________________________________________________________________________________


	BEGINNING GENETIC ALGORITHM DOCKING 21 of 100
Run: 21 Seed: 1600368879 244892256 [ Run 21 of 100 GA/GALS ]
Beginning LAMARCKIAN GENETIC ALGORITHM (LGA), with a maximum of 2500000 energy evaluations.

Final-Value: -15.851


	FINAL GENETIC ALGORITHM DOCKED STATE
	_______________________________________________


Detailed state:  trans 18.978 -11.156 2.126 quatxyzw -0.880731 0.097038 -0.461066 -0.048117 center 1.619 0.086 0.013 ntor 9 179.0944 -154.1751 171.9321 8.5989 161.6259 14.4487 -112.3599 -177.2045 136.2812
State:	 18.978 -11.156   2.126  -0.882  0.097 -0.462 -174.484    179.09 -154.18  171.93    8.60  161.63   14.45 -112.36 -177.20  136.28

DOCKED: MODEL       21
DOCKED: USER    Run = 21
DOCKED: USER    DPF = ligand_dock.biased.dpf
DOCKED: USER  
DOCKED: USER    Estimated Free Energy of Binding    =  -10.48 kcal/mol  [=(1)+(2)+(3)-(4)]
DOCKED: USER    Estimated Inhibition Constant, Ki   =   20.78 nM (nanomolar)  [Temperature = 298.15 K]
DOCKED: USER    
DOCKED: USER    (1) Final Intermolecular Energy     =  -13.17 kcal/mol
DOCKED: USER        vdW + Hbond + desolv Energy     =  -13.17 kcal/mol
DOCKED: USER        Electrostatic Energy            =   +0.00 kcal/mol
DOCKED: USER    (2) Final Total Internal Energy     =   -2.69 kcal/mol
DOCKED: USER    (3) Torsional Free Energy           =   +2.68 kcal/mol
DOCKED: USER    (4) Unbound System's Energy  [=(2)] =   -2.69 kcal/mol
DOCKED: USER    
DOCKED: USER    
DOCKED: USER    NEWDPF move ligand.pdbqt
DOCKED: USER    NEWDPF about 1.619000 0.086000 0.013000
DOCKED: USER    NEWDPF tran0 18.978278 -11.156361 2.126012
DOCKED: USER    NEWDPF quaternion0 -0.880731 0.097038 -0.461066 -0.048117
DOCKED: USER    NEWDPF axisangle0 -0.881752 0.097151 -0.461601 -174.484107
DOCKED: USER    NEWDPF quat0 -0.881752 0.097151 -0.461601 -174.484107
DOCKED: USER    NEWDPF dihe0 179.09 -154.18 171.93 8.60 161.63 14.45 -112.36 -177.20 136.28 
DOCKED: USER  keepresnum = 1 
DOCKED: USER  
DOCKED: REMARK  Name = 
DOCKED: REMARK  11 active torsions:
DOCKED: REMARK  status: ('A' for Active; 'I' for Inactive)
DOCKED: REMARK    1  A    between atoms: C_2  and  O_3
DOCKED: REMARK    2  A    between atoms: O_3  and  C_4
DOCKED: REMARK    3  A    between atoms: C_4  and  C_5
DOCKED: REMARK    4  A    between atoms: C_10  and  C_11
DOCKED: REMARK    5  A    between atoms: C_11  and  N_12
DOCKED: REMARK    6  A    between atoms: N_12  and  C_13
DOCKED: REMARK    7  A    between atoms: N_12  and  C_15
DOCKED: REMARK    8  A    between atoms: C_13  and  C_14
DOCKED: REMARK    9  A    between atoms: C_15  and  C_16
DOCKED: REMARK   10  A    between atoms: N_21  and  C_22
DOCKED: REMARK   11  A    between atoms: C_25  and  C_26
DOCKED: REMARK                            x       y       z     vdW  Elec       q    Type
DOCKED: REMARK                         _______ _______ _______ _____ _____    ______ ____
DOCKED: USER                              x       y       z     vdW  Elec       q    Type
DOCKED: USER                           _______ _______ _______ _____ _____    ______ ____
DOCKED: ROOT
DOCKED: ATOM      1  C   UNL     1      17.291 -10.904   3.808 -0.06 +0.00    +0.000 C 
DOCKED: ENDROOT
DOCKED: BRANCH   1   2
DOCKED: ATOM      2  C   UNL     1      16.605 -10.668   2.493 -0.41 +0.00    +0.000 A 
DOCKED: ATOM      3  C   UNL     1      16.148  -9.388   2.146 -0.31 +0.00    +0.000 A 
DOCKED: ATOM      4  C   UNL     1      15.494  -9.176   0.928 -0.19 +0.00    +0.000 A 
DOCKED: ATOM      5  C   UNL     1      15.276 -10.246   0.048 -0.25 +0.00    +0.000 A 
DOCKED: ATOM      6  C   UNL     1      14.612 -10.044  -1.171 -0.24 -0.00    +0.000 A 
DOCKED: ATOM      7  C   UNL     1      14.365 -11.125  -2.034 -0.31 -0.00    +0.000 A 
DOCKED: ATOM      8  C   UNL     1      14.826 -12.404  -1.686 -0.16 +0.00    +0.000 A 
DOCKED: ATOM      9  C   UNL     1      15.495 -12.613  -0.477 -0.46 +0.00    +0.000 A 
DOCKED: ATOM     10  C   UNL     1      15.721 -11.542   0.400 -0.36 +0.00    +0.000 A 
DOCKED: ATOM     11  C   UNL     1      16.385 -11.744   1.619 -0.39 +0.00    +0.000 A 
DOCKED: BRANCH   7  12
DOCKED: ATOM     12  C   UNL     1      13.661 -10.898  -3.348 -0.24 -0.00    +0.000 C 
DOCKED: BRANCH  12  13
DOCKED: ATOM     13  N   UNL     1      14.586 -11.094  -4.485 -0.28 -0.00    +0.000 N 
DOCKED: ATOM     14  H   UNL     1      14.958 -12.027  -4.301 -0.03 -0.00    +0.000 HD
DOCKED: BRANCH  13  15
DOCKED: ATOM     15  C   UNL     1      13.918 -11.214  -5.799 -0.26 -0.00    +0.000 C 
DOCKED: ATOM     16  C   UNL     1      13.960 -12.627  -6.385 -0.35 -0.00    +0.000 C 
DOCKED: ENDBRANCH  13  15
DOCKED: BRANCH  13  17
DOCKED: ATOM     17  C   UNL     1      15.833 -10.287  -4.483 -0.24 -0.00    +0.000 C 
DOCKED: ATOM     18  C   UNL     1      16.921 -10.777  -5.447 -0.27 -0.00    +0.000 C 
DOCKED: ENDBRANCH  13  17
DOCKED: ENDBRANCH  12  13
DOCKED: ENDBRANCH   7  12
DOCKED: ENDBRANCH   1   2
DOCKED: BRANCH   1  19
DOCKED: ATOM     19  O   UNL     1      18.637 -11.302   3.570 -0.64 -0.00    +0.000 OA
DOCKED: BRANCH  19  21
DOCKED: ATOM     20  O   UNL     1      19.476 -12.553   1.823 -1.54 -0.00    +0.000 OA
DOCKED: ATOM     21  C   UNL     1      19.177 -11.418   2.286 -0.67 -0.00    +0.000 C 
DOCKED: ATOM     22  N   UNL     1      19.426 -10.228   1.525 -0.52 -0.00    +0.000 N 
DOCKED: ATOM     23  H   UNL     1      19.289  -9.360   1.971 -0.32 -0.00    +0.000 HD
DOCKED: BRANCH  22  24
DOCKED: ATOM     24  C   UNL     1      19.863 -10.217   0.156 -0.46 -0.00    +0.000 A 
DOCKED: ATOM     25  C   UNL     1      20.958  -9.422  -0.211 -0.55 -0.00    +0.000 A 
DOCKED: ATOM     26  C   UNL     1      21.388  -9.372  -1.539 -0.52 -0.00    +0.000 A 
DOCKED: ATOM     27  C   UNL     1      20.713 -10.103  -2.535 -0.48 -0.00    +0.000 A 
DOCKED: ATOM     28  C   UNL     1      19.611 -10.894  -2.166 -0.39 -0.00    +0.000 A 
DOCKED: ATOM     29  C   UNL     1      19.183 -10.943  -0.836 -0.43 -0.00    +0.000 A 
DOCKED: BRANCH  27  30
DOCKED: ATOM     30  C   UNL     1      21.153 -10.061  -3.953 -0.48 -0.00    +0.000 C 
DOCKED: ATOM     31  N   UNL     1      20.966 -11.180  -4.826 -0.48 -0.00    +0.000 N 
DOCKED: ATOM     32  O   UNL     1      21.281 -11.079  -6.138 -0.43 -0.00    +0.000 OA
DOCKED: ATOM     33  O   UNL     1      21.715  -9.023  -4.399 -0.40 -0.00    +0.000 OA
DOCKED: ATOM     34  H   UNL     1      20.608 -12.025  -4.470 -0.06 -0.00    +0.000 HD
DOCKED: ENDBRANCH  27  30
DOCKED: ENDBRANCH  22  24
DOCKED: ENDBRANCH  19  21
DOCKED: ENDBRANCH   1  19
DOCKED: TORSDOF 9
DOCKED: TER
DOCKED: ENDMDL
________________________________________________________________________________


	BEGINNING GENETIC ALGORITHM DOCKING 22 of 100
Run: 22 Seed: 979528047 1343851318 [ Run 22 of 100 GA/GALS ]
Beginning LAMARCKIAN GENETIC ALGORITHM (LGA), with a maximum of 2500000 energy evaluations.

Final-Value: -15.100


	FINAL GENETIC ALGORITHM DOCKED STATE
	_______________________________________________


Detailed state:  trans 20.693 -11.140 -5.944 quatxyzw -0.695718 -0.114865 -0.288785 0.647600 center 1.619 0.086 0.013 ntor 9 175.1631 65.4001 -99.4960 -107.6483 -64.6225 17.0721 162.2806 107.0791 -179.0135
State:	 20.693 -11.140  -5.944  -0.913 -0.151 -0.379 99.278    175.16   65.40  -99.50 -107.65  -64.62   17.07  162.28  107.08 -179.01

DOCKED: MODEL       22
DOCKED: USER    Run = 22
DOCKED: USER    DPF = ligand_dock.biased.dpf
DOCKED: USER  
DOCKED: USER    Estimated Free Energy of Binding    =  -10.52 kcal/mol  [=(1)+(2)+(3)-(4)]
DOCKED: USER    Estimated Inhibition Constant, Ki   =   19.44 nM (nanomolar)  [Temperature = 298.15 K]
DOCKED: USER    
DOCKED: USER    (1) Final Intermolecular Energy     =  -13.20 kcal/mol
DOCKED: USER        vdW + Hbond + desolv Energy     =  -13.20 kcal/mol
DOCKED: USER        Electrostatic Energy            =   +0.00 kcal/mol
DOCKED: USER    (2) Final Total Internal Energy     =   -1.90 kcal/mol
DOCKED: USER    (3) Torsional Free Energy           =   +2.68 kcal/mol
DOCKED: USER    (4) Unbound System's Energy  [=(2)] =   -1.90 kcal/mol
DOCKED: USER    
DOCKED: USER    
DOCKED: USER    NEWDPF move ligand.pdbqt
DOCKED: USER    NEWDPF about 1.619000 0.086000 0.013000
DOCKED: USER    NEWDPF tran0 20.693482 -11.140335 -5.944273
DOCKED: USER    NEWDPF quaternion0 -0.695718 -0.114865 -0.288785 0.647600
DOCKED: USER    NEWDPF axisangle0 -0.913039 -0.150745 -0.378993 99.278216
DOCKED: USER    NEWDPF quat0 -0.913039 -0.150745 -0.378993 99.278216
DOCKED: USER    NEWDPF dihe0 175.16 65.40 -99.50 -107.65 -64.62 17.07 162.28 107.08 -179.01 
DOCKED: USER  keepresnum = 1 
DOCKED: USER  
DOCKED: REMARK  Name = 
DOCKED: REMARK  11 active torsions:
DOCKED: REMARK  status: ('A' for Active; 'I' for Inactive)
DOCKED: REMARK    1  A    between atoms: C_2  and  O_3
DOCKED: REMARK    2  A    between atoms: O_3  and  C_4
DOCKED: REMARK    3  A    between atoms: C_4  and  C_5
DOCKED: REMARK    4  A    between atoms: C_10  and  C_11
DOCKED: REMARK    5  A    between atoms: C_11  and  N_12
DOCKED: REMARK    6  A    between atoms: N_12  and  C_13
DOCKED: REMARK    7  A    between atoms: N_12  and  C_15
DOCKED: REMARK    8  A    between atoms: C_13  and  C_14
DOCKED: REMARK    9  A    between atoms: C_15  and  C_16
DOCKED: REMARK   10  A    between atoms: N_21  and  C_22
DOCKED: REMARK   11  A    between atoms: C_25  and  C_26
DOCKED: REMARK                            x       y       z     vdW  Elec       q    Type
DOCKED: REMARK                         _______ _______ _______ _____ _____    ______ ____
DOCKED: USER                              x       y       z     vdW  Elec       q    Type
DOCKED: USER                           _______ _______ _______ _____ _____    ______ ____
DOCKED: ROOT
DOCKED: ATOM      1  C   UNL     1      19.760  -8.947  -6.182 -0.16 -0.00    +0.000 C 
DOCKED: ENDROOT
DOCKED: BRANCH   1   2
DOCKED: ATOM      2  C   UNL     1      18.644  -9.907  -6.475 -0.20 -0.00    +0.000 A 
DOCKED: ATOM      3  C   UNL     1      18.694 -10.739  -7.604 -0.27 -0.00    +0.000 A 
DOCKED: ATOM      4  C   UNL     1      17.644 -11.619  -7.883 -0.10 -0.00    +0.000 A 
DOCKED: ATOM      5  C   UNL     1      16.522 -11.667  -7.043 -0.33 -0.00    +0.000 A 
DOCKED: ATOM      6  C   UNL     1      15.458 -12.540  -7.320 -0.31 -0.00    +0.000 A 
DOCKED: ATOM      7  C   UNL     1      14.321 -12.561  -6.496 -0.32 -0.00    +0.000 A 
DOCKED: ATOM      8  C   UNL     1      14.274 -11.730  -5.365 -0.26 -0.00    +0.000 A 
DOCKED: ATOM      9  C   UNL     1      15.332 -10.863  -5.077 -0.23 -0.00    +0.000 A 
DOCKED: ATOM     10  C   UNL     1      16.458 -10.820  -5.912 -0.25 -0.00    +0.000 A 
DOCKED: ATOM     11  C   UNL     1      17.520  -9.947  -5.634 -0.20 -0.00    +0.000 A 
DOCKED: BRANCH   7  12
DOCKED: ATOM     12  C   UNL     1      13.188 -13.509  -6.795 -0.39 -0.00    +0.000 C 
DOCKED: BRANCH  12  13
DOCKED: ATOM     13  N   UNL     1      11.955 -12.770  -7.143 -0.20 -0.00    +0.000 N 
DOCKED: ATOM     14  H   UNL     1      11.766 -12.252  -6.284 -0.01 -0.00    +0.000 HD
DOCKED: BRANCH  13  15
DOCKED: ATOM     15  C   UNL     1      12.143 -11.725  -8.173 -0.13 -0.00    +0.000 C 
DOCKED: ATOM     16  C   UNL     1      11.954 -10.301  -7.646 -0.08 -0.00    +0.000 C 
DOCKED: ENDBRANCH  13  15
DOCKED: BRANCH  13  17
DOCKED: ATOM     17  C   UNL     1      10.709 -13.567  -7.273 -0.19 -0.00    +0.000 C 
DOCKED: ATOM     18  C   UNL     1      10.709 -14.895  -6.503 -0.28 -0.00    +0.000 C 
DOCKED: ENDBRANCH  13  17
DOCKED: ENDBRANCH  12  13
DOCKED: ENDBRANCH   7  12
DOCKED: ENDBRANCH   1   2
DOCKED: BRANCH   1  19
DOCKED: ATOM     19  O   UNL     1      20.908  -9.676  -5.761 -0.27 -0.00    +0.000 OA
DOCKED: BRANCH  19  21
DOCKED: ATOM     20  O   UNL     1      21.886 -11.136  -4.267 -0.58 -0.00    +0.000 OA
DOCKED: ATOM     21  C   UNL     1      21.016 -10.250  -4.491 -0.46 -0.00    +0.000 C 
DOCKED: ATOM     22  N   UNL     1      20.096  -9.850  -3.466 -0.35 -0.00    +0.000 N 
DOCKED: ATOM     23  H   UNL     1      19.361  -9.246  -3.718 -0.00 -0.00    +0.000 HD
DOCKED: BRANCH  22  24
DOCKED: ATOM     24  C   UNL     1      20.177 -10.273  -2.094 -0.45 -0.00    +0.000 A 
DOCKED: ATOM     25  C   UNL     1      19.047 -10.831  -1.479 -0.39 -0.00    +0.000 A 
DOCKED: ATOM     26  C   UNL     1      19.089 -11.226  -0.139 -0.47 -0.00    +0.000 A 
DOCKED: ATOM     27  C   UNL     1      20.261 -11.050   0.621 -0.61 -0.00    +0.000 A 
DOCKED: ATOM     28  C   UNL     1      21.391 -10.483   0.003 -0.60 -0.00    +0.000 A 
DOCKED: ATOM     29  C   UNL     1      21.346 -10.089  -1.337 -0.57 -0.00    +0.000 A 
DOCKED: BRANCH  27  30
DOCKED: ATOM     30  C   UNL     1      20.325 -11.460   2.046 -0.77 -0.00    +0.000 C 
DOCKED: ATOM     31  N   UNL     1      20.640 -10.522   3.081 -0.64 -0.00    +0.000 N 
DOCKED: ATOM     32  O   UNL     1      20.590 -10.899   4.379 -0.92 -0.00    +0.000 OA
DOCKED: ATOM     33  O   UNL     1      20.111 -12.665   2.356 -1.62 -0.00    +0.000 OA
DOCKED: ATOM     34  H   UNL     1      20.894  -9.601   2.846 -0.59 -0.00    +0.000 HD
DOCKED: ENDBRANCH  27  30
DOCKED: ENDBRANCH  22  24
DOCKED: ENDBRANCH  19  21
DOCKED: ENDBRANCH   1  19
DOCKED: TORSDOF 9
DOCKED: TER
DOCKED: ENDMDL
________________________________________________________________________________


	BEGINNING GENETIC ALGORITHM DOCKING 23 of 100
Run: 23 Seed: 279611452 95850829 [ Run 23 of 100 GA/GALS ]
Beginning LAMARCKIAN GENETIC ALGORITHM (LGA), with a maximum of 2500000 energy evaluations.

Final-Value: -14.381


	FINAL GENETIC ALGORITHM DOCKED STATE
	_______________________________________________


Detailed state:  trans 20.422 -7.533 -4.034 quatxyzw -0.128473 -0.062759 0.367106 -0.919124 center 1.619 0.086 0.013 ntor 9 -122.7729 81.6331 -155.1855 -52.8370 -61.2689 -90.5700 -156.6553 -136.7149 134.5523
State:	 20.422  -7.533  -4.034  -0.326 -0.159  0.932 -46.403   -122.77   81.63 -155.19  -52.84  -61.27  -90.57 -156.66 -136.71  134.55

DOCKED: MODEL       23
DOCKED: USER    Run = 23
DOCKED: USER    DPF = ligand_dock.biased.dpf
DOCKED: USER  
DOCKED: USER    Estimated Free Energy of Binding    =   -9.54 kcal/mol  [=(1)+(2)+(3)-(4)]
DOCKED: USER    Estimated Inhibition Constant, Ki   =  101.68 nM (nanomolar)  [Temperature = 298.15 K]
DOCKED: USER    
DOCKED: USER    (1) Final Intermolecular Energy     =  -12.22 kcal/mol
DOCKED: USER        vdW + Hbond + desolv Energy     =  -12.22 kcal/mol
DOCKED: USER        Electrostatic Energy            =   +0.00 kcal/mol
DOCKED: USER    (2) Final Total Internal Energy     =   -2.16 kcal/mol
DOCKED: USER    (3) Torsional Free Energy           =   +2.68 kcal/mol
DOCKED: USER    (4) Unbound System's Energy  [=(2)] =   -2.16 kcal/mol
DOCKED: USER    
DOCKED: USER    
DOCKED: USER    NEWDPF move ligand.pdbqt
DOCKED: USER    NEWDPF about 1.619000 0.086000 0.013000
DOCKED: USER    NEWDPF tran0 20.422285 -7.532512 -4.034391
DOCKED: USER    NEWDPF quaternion0 -0.128473 -0.062759 0.367106 -0.919124
DOCKED: USER    NEWDPF axisangle0 -0.326100 -0.159300 0.931817 -46.403292
DOCKED: USER    NEWDPF quat0 -0.326100 -0.159300 0.931817 -46.403292
DOCKED: USER    NEWDPF dihe0 -122.77 81.63 -155.19 -52.84 -61.27 -90.57 -156.66 -136.71 134.55 
DOCKED: USER  keepresnum = 1 
DOCKED: USER  
DOCKED: REMARK  Name = 
DOCKED: REMARK  11 active torsions:
DOCKED: REMARK  status: ('A' for Active; 'I' for Inactive)
DOCKED: REMARK    1  A    between atoms: C_2  and  O_3
DOCKED: REMARK    2  A    between atoms: O_3  and  C_4
DOCKED: REMARK    3  A    between atoms: C_4  and  C_5
DOCKED: REMARK    4  A    between atoms: C_10  and  C_11
DOCKED: REMARK    5  A    between atoms: C_11  and  N_12
DOCKED: REMARK    6  A    between atoms: N_12  and  C_13
DOCKED: REMARK    7  A    between atoms: N_12  and  C_15
DOCKED: REMARK    8  A    between atoms: C_13  and  C_14
DOCKED: REMARK    9  A    between atoms: C_15  and  C_16
DOCKED: REMARK   10  A    between atoms: N_21  and  C_22
DOCKED: REMARK   11  A    between atoms: C_25  and  C_26
DOCKED: REMARK                            x       y       z     vdW  Elec       q    Type
DOCKED: REMARK                         _______ _______ _______ _____ _____    ______ ____
DOCKED: USER                              x       y       z     vdW  Elec       q    Type
DOCKED: USER                           _______ _______ _______ _____ _____    ______ ____
DOCKED: ROOT
DOCKED: ATOM      1  C   UNL     1      21.388  -7.958  -6.185 -0.17 -0.00    +0.000 C 
DOCKED: ENDROOT
DOCKED: BRANCH   1   2
DOCKED: ATOM      2  C   UNL     1      20.218  -8.892  -6.063 -0.15 -0.00    +0.000 A 
DOCKED: ATOM      3  C   UNL     1      20.416 -10.278  -5.973 -0.29 -0.00    +0.000 A 
DOCKED: ATOM      4  C   UNL     1      19.323 -11.145  -5.877 -0.36 -0.00    +0.000 A 
DOCKED: ATOM      5  C   UNL     1      18.016 -10.636  -5.885 -0.28 -0.00    +0.000 A 
DOCKED: ATOM      6  C   UNL     1      16.913 -11.499  -5.799 -0.17 -0.00    +0.000 A 
DOCKED: ATOM      7  C   UNL     1      15.605 -10.989  -5.842 -0.24 -0.00    +0.000 A 
DOCKED: ATOM      8  C   UNL     1      15.409  -9.602  -5.929 -0.12 -0.00    +0.000 A 
DOCKED: ATOM      9  C   UNL     1      16.502  -8.734  -6.007 -0.09 -0.00    +0.000 A 
DOCKED: ATOM     10  C   UNL     1      17.809  -9.241  -5.991 -0.14 -0.00    +0.000 A 
DOCKED: ATOM     11  C   UNL     1      18.912  -8.378  -6.077 -0.11 -0.00    +0.000 A 
DOCKED: BRANCH   7  12
DOCKED: ATOM     12  C   UNL     1      14.425 -11.922  -5.738 -0.31 -0.00    +0.000 C 
DOCKED: BRANCH  12  13
DOCKED: ATOM     13  N   UNL     1      13.675 -11.973  -7.012 -0.23 -0.00    +0.000 N 
DOCKED: ATOM     14  H   UNL     1      14.127 -11.236  -7.556 +0.00 -0.00    +0.000 HD
DOCKED: BRANCH  13  15
DOCKED: ATOM     15  C   UNL     1      13.897 -13.204  -7.800 -0.38 -0.00    +0.000 C 
DOCKED: ATOM     16  C   UNL     1      15.374 -13.544  -8.009 -0.47 +0.00    +0.000 C 
DOCKED: ENDBRANCH  13  15
DOCKED: BRANCH  13  17
DOCKED: ATOM     17  C   UNL     1      12.273 -11.484  -6.985 -0.15 -0.00    +0.000 C 
DOCKED: ATOM     18  C   UNL     1      12.043 -10.227  -6.135 -0.10 -0.00    +0.000 C 
DOCKED: ENDBRANCH  13  17
DOCKED: ENDBRANCH  12  13
DOCKED: ENDBRANCH   7  12
DOCKED: ENDBRANCH   1   2
DOCKED: BRANCH   1  19
DOCKED: ATOM     19  O   UNL     1      21.420  -7.097  -5.053 -0.21 -0.00    +0.000 OA
DOCKED: BRANCH  19  21
DOCKED: ATOM     20  O   UNL     1      20.754  -6.736  -2.874 -0.39 -0.00    +0.000 OA
DOCKED: ATOM     21  C   UNL     1      21.162  -7.543  -3.753 -0.35 -0.00    +0.000 C 
DOCKED: ATOM     22  N   UNL     1      21.412  -8.917  -3.427 -0.40 -0.00    +0.000 N 
DOCKED: ATOM     23  H   UNL     1      21.842  -9.481  -4.110 -0.03 -0.00    +0.000 HD
DOCKED: BRANCH  22  24
DOCKED: ATOM     24  C   UNL     1      21.077  -9.526  -2.169 -0.50 -0.00    +0.000 A 
DOCKED: ATOM     25  C   UNL     1      20.265 -10.669  -2.152 -0.41 -0.00    +0.000 A 
DOCKED: ATOM     26  C   UNL     1      19.902 -11.266  -0.942 -0.25 -0.00    +0.000 A 
DOCKED: ATOM     27  C   UNL     1      20.326 -10.715   0.281 -0.59 -0.00    +0.000 A 
DOCKED: ATOM     28  C   UNL     1      21.134  -9.564   0.262 -0.45 -0.00    +0.000 A 
DOCKED: ATOM     29  C   UNL     1      21.497  -8.969  -0.949 -0.40 -0.00    +0.000 A 
DOCKED: BRANCH  27  30
DOCKED: ATOM     30  C   UNL     1      19.948 -11.333   1.577 -0.73 -0.00    +0.000 C 
DOCKED: ATOM     31  N   UNL     1      20.334 -10.746   2.825 -0.68 -0.00    +0.000 N 
DOCKED: ATOM     32  O   UNL     1      19.890 -11.271   3.990 -1.14 -0.00    +0.000 OA
DOCKED: ATOM     33  O   UNL     1      19.284 -12.406   1.584 -1.42 -0.00    +0.000 OA
DOCKED: ATOM     34  H   UNL     1      20.924  -9.959   2.835 -0.52 -0.00    +0.000 HD
DOCKED: ENDBRANCH  27  30
DOCKED: ENDBRANCH  22  24
DOCKED: ENDBRANCH  19  21
DOCKED: ENDBRANCH   1  19
DOCKED: TORSDOF 9
DOCKED: TER
DOCKED: ENDMDL
________________________________________________________________________________


	BEGINNING GENETIC ALGORITHM DOCKING 24 of 100
Run: 24 Seed: 1206871712 621659345 [ Run 24 of 100 GA/GALS ]
Beginning LAMARCKIAN GENETIC ALGORITHM (LGA), with a maximum of 2500000 energy evaluations.

Final-Value: -14.758


	FINAL GENETIC ALGORITHM DOCKED STATE
	_______________________________________________


Detailed state:  trans 21.144 -11.097 -5.665 quatxyzw 0.594006 0.108433 0.161264 -0.780636 center 1.619 0.086 0.013 ntor 9 51.4430 1.4371 55.2401 173.7504 -13.9253 -149.9220 161.3064 131.1796 -158.4963
State:	 21.144 -11.097  -5.665   0.950  0.173  0.258 -77.362     51.44    1.44   55.24  173.75  -13.93 -149.92  161.31  131.18 -158.50

DOCKED: MODEL       24
DOCKED: USER    Run = 24
DOCKED: USER    DPF = ligand_dock.biased.dpf
DOCKED: USER  
DOCKED: USER    Estimated Free Energy of Binding    =  -10.00 kcal/mol  [=(1)+(2)+(3)-(4)]
DOCKED: USER    Estimated Inhibition Constant, Ki   =   46.79 nM (nanomolar)  [Temperature = 298.15 K]
DOCKED: USER    
DOCKED: USER    (1) Final Intermolecular Energy     =  -12.68 kcal/mol
DOCKED: USER        vdW + Hbond + desolv Energy     =  -12.68 kcal/mol
DOCKED: USER        Electrostatic Energy            =   +0.00 kcal/mol
DOCKED: USER    (2) Final Total Internal Energy     =   -2.07 kcal/mol
DOCKED: USER    (3) Torsional Free Energy           =   +2.68 kcal/mol
DOCKED: USER    (4) Unbound System's Energy  [=(2)] =   -2.07 kcal/mol
DOCKED: USER    
DOCKED: USER    
DOCKED: USER    NEWDPF move ligand.pdbqt
DOCKED: USER    NEWDPF about 1.619000 0.086000 0.013000
DOCKED: USER    NEWDPF tran0 21.143542 -11.097489 -5.665220
DOCKED: USER    NEWDPF quaternion0 0.594006 0.108433 0.161264 -0.780636
DOCKED: USER    NEWDPF axisangle0 0.950432 0.173497 0.258028 -77.362280
DOCKED: USER    NEWDPF quat0 0.950432 0.173497 0.258028 -77.362280
DOCKED: USER    NEWDPF dihe0 51.44 1.44 55.24 173.75 -13.93 -149.92 161.31 131.18 -158.50 
DOCKED: USER  keepresnum = 1 
DOCKED: USER  
DOCKED: REMARK  Name = 
DOCKED: REMARK  11 active torsions:
DOCKED: REMARK  status: ('A' for Active; 'I' for Inactive)
DOCKED: REMARK    1  A    between atoms: C_2  and  O_3
DOCKED: REMARK    2  A    between atoms: O_3  and  C_4
DOCKED: REMARK    3  A    between atoms: C_4  and  C_5
DOCKED: REMARK    4  A    between atoms: C_10  and  C_11
DOCKED: REMARK    5  A    between atoms: C_11  and  N_12
DOCKED: REMARK    6  A    between atoms: N_12  and  C_13
DOCKED: REMARK    7  A    between atoms: N_12  and  C_15
DOCKED: REMARK    8  A    between atoms: C_13  and  C_14
DOCKED: REMARK    9  A    between atoms: C_15  and  C_16
DOCKED: REMARK   10  A    between atoms: N_21  and  C_22
DOCKED: REMARK   11  A    between atoms: C_25  and  C_26
DOCKED: REMARK                            x       y       z     vdW  Elec       q    Type
DOCKED: REMARK                         _______ _______ _______ _____ _____    ______ ____
DOCKED: USER                              x       y       z     vdW  Elec       q    Type
DOCKED: USER                           _______ _______ _______ _____ _____    ______ ____
DOCKED: ROOT
DOCKED: ATOM      1  C   UNL     1      20.668  -8.947  -6.606 -0.17 -0.00    +0.000 C 
DOCKED: ENDROOT
DOCKED: BRANCH   1   2
DOCKED: ATOM      2  C   UNL     1      19.349  -9.657  -6.508 -0.18 -0.00    +0.000 A 
DOCKED: ATOM      3  C   UNL     1      19.223 -10.992  -6.922 -0.27 -0.00    +0.000 A 
DOCKED: ATOM      4  C   UNL     1      17.989 -11.644  -6.844 -0.29 -0.00    +0.000 A 
DOCKED: ATOM      5  C   UNL     1      16.860 -10.964  -6.365 -0.28 -0.00    +0.000 A 
DOCKED: ATOM      6  C   UNL     1      15.615 -11.608  -6.293 -0.28 -0.00    +0.000 A 
DOCKED: ATOM      7  C   UNL     1      14.480 -10.913  -5.846 -0.22 -0.00    +0.000 A 
DOCKED: ATOM      8  C   UNL     1      14.608  -9.578  -5.429 -0.12 -0.00    +0.000 A 
DOCKED: ATOM      9  C   UNL     1      15.846  -8.932  -5.489 -0.11 -0.00    +0.000 A 
DOCKED: ATOM     10  C   UNL     1      16.976  -9.613  -5.960 -0.15 -0.00    +0.000 A 
DOCKED: ATOM     11  C   UNL     1      18.221  -8.969  -6.033 -0.13 -0.00    +0.000 A 
DOCKED: BRANCH   7  12
DOCKED: ATOM     12  C   UNL     1      13.148 -11.615  -5.760 -0.09 -0.00    +0.000 C 
DOCKED: BRANCH  12  13
DOCKED: ATOM     13  N   UNL     1      12.672 -12.013  -7.103 -0.19 -0.00    +0.000 N 
DOCKED: ATOM     14  H   UNL     1      11.670 -11.827  -7.039 -0.01 -0.00    +0.000 HD
DOCKED: BRANCH  13  15
DOCKED: ATOM     15  C   UNL     1      13.142 -11.139  -8.199 -0.12 -0.00    +0.000 C 
DOCKED: ATOM     16  C   UNL     1      13.894 -11.886  -9.303 -0.17 -0.00    +0.000 C 
DOCKED: ENDBRANCH  13  15
DOCKED: BRANCH  13  17
DOCKED: ATOM     17  C   UNL     1      12.671 -13.466  -7.411 -0.32 -0.00    +0.000 C 
DOCKED: ATOM     18  C   UNL     1      13.892 -14.237  -6.889 -0.35 +0.00    +0.000 C 
DOCKED: ENDBRANCH  13  17
DOCKED: ENDBRANCH  12  13
DOCKED: ENDBRANCH   7  12
DOCKED: ENDBRANCH   1   2
DOCKED: BRANCH   1  19
DOCKED: ATOM     19  O   UNL     1      21.679  -9.748  -6.005 -0.31 -0.00    +0.000 OA
DOCKED: BRANCH  19  21
DOCKED: ATOM     20  O   UNL     1      22.295 -11.244  -4.360 -0.45 -0.00    +0.000 OA
DOCKED: ATOM     21  C   UNL     1      21.553 -10.289  -4.722 -0.46 -0.00    +0.000 C 
DOCKED: ATOM     22  N   UNL     1      20.542  -9.774  -3.846 -0.36 -0.00    +0.000 N 
DOCKED: ATOM     23  H   UNL     1      19.910  -9.113  -4.211 +0.00 -0.00    +0.000 HD
DOCKED: BRANCH  22  24
DOCKED: ATOM     24  C   UNL     1      20.389 -10.159  -2.469 -0.46 -0.00    +0.000 A 
DOCKED: ATOM     25  C   UNL     1      21.400  -9.842  -1.550 -0.54 -0.00    +0.000 A 
DOCKED: ATOM     26  C   UNL     1      21.290 -10.227  -0.212 -0.63 -0.00    +0.000 A 
DOCKED: ATOM     27  C   UNL     1      20.172 -10.958   0.232 -0.58 -0.00    +0.000 A 
DOCKED: ATOM     28  C   UNL     1      19.162 -11.280  -0.694 -0.44 -0.00    +0.000 A 
DOCKED: ATOM     29  C   UNL     1      19.275 -10.894  -2.032 -0.39 -0.00    +0.000 A 
DOCKED: BRANCH  27  30
DOCKED: ATOM     30  C   UNL     1      20.038 -11.378   1.649 -0.74 -0.00    +0.000 C 
DOCKED: ATOM     31  N   UNL     1      20.551 -10.575   2.718 -0.63 -0.00    +0.000 N 
DOCKED: ATOM     32  O   UNL     1      20.325 -10.930   4.004 -1.13 -0.00    +0.000 OA
DOCKED: ATOM     33  O   UNL     1      19.472 -12.472   1.922 -1.56 -0.00    +0.000 OA
DOCKED: ATOM     34  H   UNL     1      21.070  -9.764   2.516 -0.59 -0.00    +0.000 HD
DOCKED: ENDBRANCH  27  30
DOCKED: ENDBRANCH  22  24
DOCKED: ENDBRANCH  19  21
DOCKED: ENDBRANCH   1  19
DOCKED: TORSDOF 9
DOCKED: TER
DOCKED: ENDMDL
________________________________________________________________________________


	BEGINNING GENETIC ALGORITHM DOCKING 25 of 100
Run: 25 Seed: 2026391742 2037943444 [ Run 25 of 100 GA/GALS ]
Beginning LAMARCKIAN GENETIC ALGORITHM (LGA), with a maximum of 2500000 energy evaluations.

Final-Value: -14.922


	FINAL GENETIC ALGORITHM DOCKED STATE
	_______________________________________________


Detailed state:  trans 21.620 -11.468 -6.145 quatxyzw 0.125719 -0.505574 0.835185 -0.176227 center 1.619 0.086 0.013 ntor 9 -114.0970 132.0037 115.8460 -30.9336 130.2540 176.2555 -73.5311 -88.3641 -46.4089
State:	 21.620 -11.468  -6.145   0.128 -0.514  0.848 -159.700   -114.10  132.00  115.85  -30.93  130.25  176.26  -73.53  -88.36  -46.41

DOCKED: MODEL       25
DOCKED: USER    Run = 25
DOCKED: USER    DPF = ligand_dock.biased.dpf
DOCKED: USER  
DOCKED: USER    Estimated Free Energy of Binding    =  -10.65 kcal/mol  [=(1)+(2)+(3)-(4)]
DOCKED: USER    Estimated Inhibition Constant, Ki   =   15.64 nM (nanomolar)  [Temperature = 298.15 K]
DOCKED: USER    
DOCKED: USER    (1) Final Intermolecular Energy     =  -13.33 kcal/mol
DOCKED: USER        vdW + Hbond + desolv Energy     =  -13.33 kcal/mol
DOCKED: USER        Electrostatic Energy            =   +0.00 kcal/mol
DOCKED: USER    (2) Final Total Internal Energy     =   -1.59 kcal/mol
DOCKED: USER    (3) Torsional Free Energy           =   +2.68 kcal/mol
DOCKED: USER    (4) Unbound System's Energy  [=(2)] =   -1.59 kcal/mol
DOCKED: USER    
DOCKED: USER    
DOCKED: USER    NEWDPF move ligand.pdbqt
DOCKED: USER    NEWDPF about 1.619000 0.086000 0.013000
DOCKED: USER    NEWDPF tran0 21.620060 -11.467527 -6.144549
DOCKED: USER    NEWDPF quaternion0 0.125719 -0.505574 0.835185 -0.176227
DOCKED: USER    NEWDPF axisangle0 0.127718 -0.513612 0.848464 -159.699839
DOCKED: USER    NEWDPF quat0 0.127718 -0.513612 0.848464 -159.699839
DOCKED: USER    NEWDPF dihe0 -114.10 132.00 115.85 -30.93 130.25 176.26 -73.53 -88.36 -46.41 
DOCKED: USER  keepresnum = 1 
DOCKED: USER  
DOCKED: REMARK  Name = 
DOCKED: REMARK  11 active torsions:
DOCKED: REMARK  status: ('A' for Active; 'I' for Inactive)
DOCKED: REMARK    1  A    between atoms: C_2  and  O_3
DOCKED: REMARK    2  A    between atoms: O_3  and  C_4
DOCKED: REMARK    3  A    between atoms: C_4  and  C_5
DOCKED: REMARK    4  A    between atoms: C_10  and  C_11
DOCKED: REMARK    5  A    between atoms: C_11  and  N_12
DOCKED: REMARK    6  A    between atoms: N_12  and  C_13
DOCKED: REMARK    7  A    between atoms: N_12  and  C_15
DOCKED: REMARK    8  A    between atoms: C_13  and  C_14
DOCKED: REMARK    9  A    between atoms: C_15  and  C_16
DOCKED: REMARK   10  A    between atoms: N_21  and  C_22
DOCKED: REMARK   11  A    between atoms: C_25  and  C_26
DOCKED: REMARK                            x       y       z     vdW  Elec       q    Type
DOCKED: REMARK                         _______ _______ _______ _____ _____    ______ ____
DOCKED: USER                              x       y       z     vdW  Elec       q    Type
DOCKED: USER                           _______ _______ _______ _____ _____    ______ ____
DOCKED: ROOT
DOCKED: ATOM      1  C   UNL     1      21.358  -9.183  -6.817 -0.21 -0.00    +0.000 C 
DOCKED: ENDROOT
DOCKED: BRANCH   1   2
DOCKED: ATOM      2  C   UNL     1      22.677  -9.633  -7.378 -0.22 -0.00    +0.000 A 
DOCKED: ATOM      3  C   UNL     1      22.730 -10.613  -8.381 -0.24 -0.00    +0.000 A 
DOCKED: ATOM      4  C   UNL     1      23.961 -11.041  -8.888 -0.26 -0.00    +0.000 A 
DOCKED: ATOM      5  C   UNL     1      25.156 -10.504  -8.387 -0.30 -0.00    +0.000 A 
DOCKED: ATOM      6  C   UNL     1      26.396 -10.935  -8.883 -0.34 -0.00    +0.000 A 
DOCKED: ATOM      7  C   UNL     1      27.591 -10.421  -8.354 -0.40 -0.00    +0.000 A 
DOCKED: ATOM      8  C   UNL     1      27.536  -9.438  -7.353 -0.41 -0.00    +0.000 A 
DOCKED: ATOM      9  C   UNL     1      26.305  -8.997  -6.859 -0.29 -0.00    +0.000 A 
DOCKED: ATOM     10  C   UNL     1      25.110  -9.527  -7.365 -0.25 -0.00    +0.000 A 
DOCKED: ATOM     11  C   UNL     1      23.870  -9.096  -6.869 -0.17 -0.00    +0.000 A 
DOCKED: BRANCH   7  12
DOCKED: ATOM     12  C   UNL     1      28.919 -10.880  -8.900 -0.26 -0.00    +0.000 C 
DOCKED: BRANCH  12  13
DOCKED: ATOM     13  N   UNL     1      29.236 -10.193 -10.171 -0.26 -0.00    +0.000 N 
DOCKED: ATOM     14  H   UNL     1      28.562  -9.427 -10.175 +0.00 -0.00    +0.000 HD
DOCKED: BRANCH  13  15
DOCKED: ATOM     15  C   UNL     1      30.555  -9.526 -10.190 -0.20 -0.00    +0.000 C 
DOCKED: ATOM     16  C   UNL     1      30.888  -8.782  -8.895 -0.19 -0.00    +0.000 C 
DOCKED: ENDBRANCH  13  15
DOCKED: BRANCH  13  17
DOCKED: ATOM     17  C   UNL     1      28.868 -10.900 -11.425 -0.25 -0.00    +0.000 C 
DOCKED: ATOM     18  C   UNL     1      27.463 -10.584 -11.956 -0.14 -0.00    +0.000 C 
DOCKED: ENDBRANCH  13  17
DOCKED: ENDBRANCH  12  13
DOCKED: ENDBRANCH   7  12
DOCKED: ENDBRANCH   1   2
DOCKED: BRANCH   1  19
DOCKED: ATOM     19  O   UNL     1      20.706 -10.292  -6.207 -0.30 -0.00    +0.000 OA
DOCKED: BRANCH  19  21
DOCKED: ATOM     20  O   UNL     1      21.972 -11.148  -4.480 -0.58 -0.00    +0.000 OA
DOCKED: ATOM     21  C   UNL     1      20.887 -10.631  -4.863 -0.47 -0.00    +0.000 C 
DOCKED: ATOM     22  N   UNL     1      19.807 -10.427  -3.942 -0.36 -0.00    +0.000 N 
DOCKED: ATOM     23  H   UNL     1      18.940 -10.133  -4.307 -0.00 -0.00    +0.000 HD
DOCKED: BRANCH  22  24
DOCKED: ATOM     24  C   UNL     1      19.905 -10.621  -2.522 -0.41 -0.00    +0.000 A 
DOCKED: ATOM     25  C   UNL     1      21.129 -10.387  -1.878 -0.52 -0.00    +0.000 A 
DOCKED: ATOM     26  C   UNL     1      21.260 -10.592  -0.502 -0.60 -0.00    +0.000 A 
DOCKED: ATOM     27  C   UNL     1      20.171 -11.060   0.256 -0.57 -0.00    +0.000 A 
DOCKED: ATOM     28  C   UNL     1      18.946 -11.301  -0.393 -0.45 -0.00    +0.000 A 
DOCKED: ATOM     29  C   UNL     1      18.818 -11.094  -1.769 -0.35 -0.00    +0.000 A 
DOCKED: BRANCH  27  30
DOCKED: ATOM     30  C   UNL     1      20.291 -11.288   1.719 -0.76 -0.00    +0.000 C 
DOCKED: ATOM     31  N   UNL     1      19.930 -10.275   2.664 -0.57 -0.00    +0.000 N 
DOCKED: ATOM     32  O   UNL     1      19.951 -10.544   3.990 -0.75 -0.00    +0.000 OA
DOCKED: ATOM     33  O   UNL     1      20.732 -12.392   2.142 -1.77 -0.00    +0.000 OA
DOCKED: ATOM     34  H   UNL     1      19.667  -9.381   2.348 -0.47 -0.00    +0.000 HD
DOCKED: ENDBRANCH  27  30
DOCKED: ENDBRANCH  22  24
DOCKED: ENDBRANCH  19  21
DOCKED: ENDBRANCH   1  19
DOCKED: TORSDOF 9
DOCKED: TER
DOCKED: ENDMDL
________________________________________________________________________________


	BEGINNING GENETIC ALGORITHM DOCKING 26 of 100
Run: 26 Seed: 1513408294 1640580126 [ Run 26 of 100 GA/GALS ]
Beginning LAMARCKIAN GENETIC ALGORITHM (LGA), with a maximum of 2500000 energy evaluations.

Final-Value: -16.202


	FINAL GENETIC ALGORITHM DOCKED STATE
	_______________________________________________


Detailed state:  trans 20.709 -10.889 -5.193 quatxyzw 0.331401 0.208359 0.051996 -0.918726 center 1.619 0.086 0.013 ntor 9 135.8856 -52.0116 67.0130 172.2922 153.3809 -129.6087 113.5304 177.0429 155.1322
State:	 20.709 -10.889  -5.193   0.839  0.528  0.132 -46.519    135.89  -52.01   67.01  172.29  153.38 -129.61  113.53  177.04  155.13

DOCKED: MODEL       26
DOCKED: USER    Run = 26
DOCKED: USER    DPF = ligand_dock.biased.dpf
DOCKED: USER  
DOCKED: USER    Estimated Free Energy of Binding    =  -11.03 kcal/mol  [=(1)+(2)+(3)-(4)]
DOCKED: USER    Estimated Inhibition Constant, Ki   =    8.22 nM (nanomolar)  [Temperature = 298.15 K]
DOCKED: USER    
DOCKED: USER    (1) Final Intermolecular Energy     =  -13.71 kcal/mol
DOCKED: USER        vdW + Hbond + desolv Energy     =  -13.71 kcal/mol
DOCKED: USER        Electrostatic Energy            =   +0.00 kcal/mol
DOCKED: USER    (2) Final Total Internal Energy     =   -2.49 kcal/mol
DOCKED: USER    (3) Torsional Free Energy           =   +2.68 kcal/mol
DOCKED: USER    (4) Unbound System's Energy  [=(2)] =   -2.49 kcal/mol
DOCKED: USER    
DOCKED: USER    
DOCKED: USER    NEWDPF move ligand.pdbqt
DOCKED: USER    NEWDPF about 1.619000 0.086000 0.013000
DOCKED: USER    NEWDPF tran0 20.708845 -10.888784 -5.192660
DOCKED: USER    NEWDPF quaternion0 0.331401 0.208359 0.051996 -0.918726
DOCKED: USER    NEWDPF axisangle0 0.839208 0.527629 0.131670 -46.519064
DOCKED: USER    NEWDPF quat0 0.839208 0.527629 0.131670 -46.519064
DOCKED: USER    NEWDPF dihe0 135.89 -52.01 67.01 172.29 153.38 -129.61 113.53 177.04 155.13 
DOCKED: USER  keepresnum = 1 
DOCKED: USER  
DOCKED: REMARK  Name = 
DOCKED: REMARK  11 active torsions:
DOCKED: REMARK  status: ('A' for Active; 'I' for Inactive)
DOCKED: REMARK    1  A    between atoms: C_2  and  O_3
DOCKED: REMARK    2  A    between atoms: O_3  and  C_4
DOCKED: REMARK    3  A    between atoms: C_4  and  C_5
DOCKED: REMARK    4  A    between atoms: C_10  and  C_11
DOCKED: REMARK    5  A    between atoms: C_11  and  N_12
DOCKED: REMARK    6  A    between atoms: N_12  and  C_13
DOCKED: REMARK    7  A    between atoms: N_12  and  C_15
DOCKED: REMARK    8  A    between atoms: C_13  and  C_14
DOCKED: REMARK    9  A    between atoms: C_15  and  C_16
DOCKED: REMARK   10  A    between atoms: N_21  and  C_22
DOCKED: REMARK   11  A    between atoms: C_25  and  C_26
DOCKED: REMARK                            x       y       z     vdW  Elec       q    Type
DOCKED: REMARK                         _______ _______ _______ _____ _____    ______ ____
DOCKED: USER                              x       y       z     vdW  Elec       q    Type
DOCKED: USER                           _______ _______ _______ _____ _____    ______ ____
DOCKED: ROOT
DOCKED: ATOM      1  C   UNL     1      20.041  -9.680  -7.150 -0.21 -0.00    +0.000 C 
DOCKED: ENDROOT
DOCKED: BRANCH   1   2
DOCKED: ATOM      2  C   UNL     1      18.771 -10.070  -6.450 -0.23 -0.00    +0.000 A 
DOCKED: ATOM      3  C   UNL     1      18.117 -11.269  -6.772 -0.34 -0.00    +0.000 A 
DOCKED: ATOM      4  C   UNL     1      16.926 -11.620  -6.129 -0.24 -0.00    +0.000 A 
DOCKED: ATOM      5  C   UNL     1      16.365 -10.768  -5.167 -0.21 -0.00    +0.000 A 
DOCKED: ATOM      6  C   UNL     1      15.164 -11.107  -4.524 -0.21 -0.00    +0.000 A 
DOCKED: ATOM      7  C   UNL     1      14.588 -10.235  -3.587 -0.23 -0.00    +0.000 A 
DOCKED: ATOM      8  C   UNL     1      15.245  -9.038  -3.263 -0.18 -0.00    +0.000 A 
DOCKED: ATOM      9  C   UNL     1      16.446  -8.695  -3.893 -0.14 -0.00    +0.000 A 
DOCKED: ATOM     10  C   UNL     1      17.012  -9.551  -4.849 -0.18 -0.00    +0.000 A 
DOCKED: ATOM     11  C   UNL     1      18.212  -9.210  -5.492 -0.16 -0.00    +0.000 A 
DOCKED: BRANCH   7  12
DOCKED: ATOM     12  C   UNL     1      13.304 -10.612  -2.892 -0.22 -0.00    +0.000 C 
DOCKED: BRANCH  12  13
DOCKED: ATOM     13  N   UNL     1      13.565 -11.082  -1.514 -0.32 -0.00    +0.000 N 
DOCKED: ATOM     14  H   UNL     1      12.882 -11.834  -1.411 -0.03 +0.00    +0.000 HD
DOCKED: BRANCH  13  15
DOCKED: ATOM     15  C   UNL     1      14.875 -11.742  -1.334 -0.39 +0.00    +0.000 C 
DOCKED: ATOM     16  C   UNL     1      14.892 -12.781  -0.209 -0.53 +0.00    +0.000 C 
DOCKED: ENDBRANCH  13  15
DOCKED: BRANCH  13  17
DOCKED: ATOM     17  C   UNL     1      13.157 -10.177  -0.409 -0.25 +0.00    +0.000 C 
DOCKED: ATOM     18  C   UNL     1      14.261  -9.238   0.097 -0.24 +0.00    +0.000 C 
DOCKED: ENDBRANCH  13  17
DOCKED: ENDBRANCH  12  13
DOCKED: ENDBRANCH   7  12
DOCKED: ENDBRANCH   1   2
DOCKED: BRANCH   1  19
DOCKED: ATOM     19  O   UNL     1      21.154 -10.058  -6.348 -0.29 -0.00    +0.000 OA
DOCKED: BRANCH  19  21
DOCKED: ATOM     20  O   UNL     1      21.372 -11.788  -4.837 -0.61 -0.00    +0.000 OA
DOCKED: ATOM     21  C   UNL     1      21.015 -10.599  -5.066 -0.46 -0.00    +0.000 C 
DOCKED: ATOM     22  N   UNL     1      20.421  -9.800  -4.034 -0.33 -0.00    +0.000 N 
DOCKED: ATOM     23  H   UNL     1      20.049  -8.924  -4.288 +0.00 -0.00    +0.000 HD
DOCKED: BRANCH  22  24
DOCKED: ATOM     24  C   UNL     1      20.331 -10.194  -2.655 -0.45 -0.00    +0.000 A 
DOCKED: ATOM     25  C   UNL     1      21.413  -9.947  -1.797 -0.51 -0.00    +0.000 A 
DOCKED: ATOM     26  C   UNL     1      21.363 -10.342  -0.458 -0.63 -0.00    +0.000 A 
DOCKED: ATOM     27  C   UNL     1      20.235 -11.015   0.046 -0.55 -0.00    +0.000 A 
DOCKED: ATOM     28  C   UNL     1      19.154 -11.267  -0.817 -0.43 -0.00    +0.000 A 
DOCKED: ATOM     29  C   UNL     1      19.206 -10.871  -2.157 -0.38 -0.00    +0.000 A 
DOCKED: BRANCH  27  30
DOCKED: ATOM     30  C   UNL     1      20.164 -11.445   1.466 -0.75 -0.00    +0.000 C 
DOCKED: ATOM     31  N   UNL     1      20.564 -10.575   2.531 -0.62 -0.00    +0.000 N 
DOCKED: ATOM     32  O   UNL     1      20.393 -10.953   3.818 -1.18 -0.00    +0.000 OA
DOCKED: ATOM     33  O   UNL     1      19.757 -12.606   1.743 -1.64 -0.00    +0.000 OA
DOCKED: ATOM     34  H   UNL     1      20.964  -9.700   2.325 -0.57 -0.00    +0.000 HD
DOCKED: ENDBRANCH  27  30
DOCKED: ENDBRANCH  22  24
DOCKED: ENDBRANCH  19  21
DOCKED: ENDBRANCH   1  19
DOCKED: TORSDOF 9
DOCKED: TER
DOCKED: ENDMDL
________________________________________________________________________________


	BEGINNING GENETIC ALGORITHM DOCKING 27 of 100
Run: 27 Seed: 1169090065 857695802 [ Run 27 of 100 GA/GALS ]
Beginning LAMARCKIAN GENETIC ALGORITHM (LGA), with a maximum of 2500000 energy evaluations.

Final-Value: -15.425


	FINAL GENETIC ALGORITHM DOCKED STATE
	_______________________________________________


Detailed state:  trans 19.884 -11.283 -5.368 quatxyzw 0.394835 0.229907 -0.030121 -0.889011 center 1.619 0.086 0.013 ntor 9 137.6143 -61.6664 101.1218 128.6050 147.7941 -142.8709 120.5048 168.2070 -180.0000
State:	 19.884 -11.283  -5.368   0.862  0.502 -0.066 -54.501    137.61  -61.67  101.12  128.61  147.79 -142.87  120.50  168.21 -180.00

DOCKED: MODEL       27
DOCKED: USER    Run = 27
DOCKED: USER    DPF = ligand_dock.biased.dpf
DOCKED: USER  
DOCKED: USER    Estimated Free Energy of Binding    =  -10.22 kcal/mol  [=(1)+(2)+(3)-(4)]
DOCKED: USER    Estimated Inhibition Constant, Ki   =   32.13 nM (nanomolar)  [Temperature = 298.15 K]
DOCKED: USER    
DOCKED: USER    (1) Final Intermolecular Energy     =  -12.91 kcal/mol
DOCKED: USER        vdW + Hbond + desolv Energy     =  -12.91 kcal/mol
DOCKED: USER        Electrostatic Energy            =   +0.00 kcal/mol
DOCKED: USER    (2) Final Total Internal Energy     =   -2.52 kcal/mol
DOCKED: USER    (3) Torsional Free Energy           =   +2.68 kcal/mol
DOCKED: USER    (4) Unbound System's Energy  [=(2)] =   -2.52 kcal/mol
DOCKED: USER    
DOCKED: USER    
DOCKED: USER    NEWDPF move ligand.pdbqt
DOCKED: USER    NEWDPF about 1.619000 0.086000 0.013000
DOCKED: USER    NEWDPF tran0 19.884302 -11.282684 -5.368423
DOCKED: USER    NEWDPF quaternion0 0.394835 0.229907 -0.030121 -0.889011
DOCKED: USER    NEWDPF axisangle0 0.862301 0.502106 -0.065782 -54.501484
DOCKED: USER    NEWDPF quat0 0.862301 0.502106 -0.065782 -54.501484
DOCKED: USER    NEWDPF dihe0 137.61 -61.67 101.12 128.61 147.79 -142.87 120.50 168.21 -180.00 
DOCKED: USER  keepresnum = 1 
DOCKED: USER  
DOCKED: REMARK  Name = 
DOCKED: REMARK  11 active torsions:
DOCKED: REMARK  status: ('A' for Active; 'I' for Inactive)
DOCKED: REMARK    1  A    between atoms: C_2  and  O_3
DOCKED: REMARK    2  A    between atoms: O_3  and  C_4
DOCKED: REMARK    3  A    between atoms: C_4  and  C_5
DOCKED: REMARK    4  A    between atoms: C_10  and  C_11
DOCKED: REMARK    5  A    between atoms: C_11  and  N_12
DOCKED: REMARK    6  A    between atoms: N_12  and  C_13
DOCKED: REMARK    7  A    between atoms: N_12  and  C_15
DOCKED: REMARK    8  A    between atoms: C_13  and  C_14
DOCKED: REMARK    9  A    between atoms: C_15  and  C_16
DOCKED: REMARK   10  A    between atoms: N_21  and  C_22
DOCKED: REMARK   11  A    between atoms: C_25  and  C_26
DOCKED: REMARK                            x       y       z     vdW  Elec       q    Type
DOCKED: REMARK                         _______ _______ _______ _____ _____    ______ ____
DOCKED: USER                              x       y       z     vdW  Elec       q    Type
DOCKED: USER                           _______ _______ _______ _____ _____    ______ ____
DOCKED: ROOT
DOCKED: ATOM      1  C   UNL     1      19.224  -9.781  -7.114 -0.22 -0.00    +0.000 C 
DOCKED: ENDROOT
DOCKED: BRANCH   1   2
DOCKED: ATOM      2  C   UNL     1      17.987 -10.046  -6.304 -0.21 -0.00    +0.000 A 
DOCKED: ATOM      3  C   UNL     1      17.404 -11.321  -6.288 -0.32 -0.00    +0.000 A 
DOCKED: ATOM      4  C   UNL     1      16.242 -11.558  -5.546 -0.07 -0.00    +0.000 A 
DOCKED: ATOM      5  C   UNL     1      15.641 -10.518  -4.823 -0.22 -0.00    +0.000 A 
DOCKED: ATOM      6  C   UNL     1      14.470 -10.744  -4.084 -0.25 -0.00    +0.000 A 
DOCKED: ATOM      7  C   UNL     1      13.851  -9.692  -3.390 -0.19 -0.00    +0.000 A 
DOCKED: ATOM      8  C   UNL     1      14.439  -8.416  -3.405 -0.15 -0.00    +0.000 A 
DOCKED: ATOM      9  C   UNL     1      15.610  -8.184  -4.132 -0.14 -0.00    +0.000 A 
DOCKED: ATOM     10  C   UNL     1      16.216  -9.226  -4.848 -0.16 -0.00    +0.000 A 
DOCKED: ATOM     11  C   UNL     1      17.387  -8.998  -5.588 -0.13 -0.00    +0.000 A 
DOCKED: BRANCH   7  12
DOCKED: ATOM     12  C   UNL     1      12.600  -9.945  -2.589 -0.21 -0.00    +0.000 C 
DOCKED: BRANCH  12  13
DOCKED: ATOM     13  N   UNL     1      12.919 -10.158  -1.160 -0.23 -0.00    +0.000 N 
DOCKED: ATOM     14  H   UNL     1      11.990 -10.206  -0.738 -0.01 +0.00    +0.000 HD
DOCKED: BRANCH  13  15
DOCKED: ATOM     15  C   UNL     1      13.531 -11.470  -0.861 -0.36 +0.00    +0.000 C 
DOCKED: ATOM     16  C   UNL     1      13.213 -11.992   0.542 -0.42 +0.00    +0.000 C 
DOCKED: ENDBRANCH  13  15
DOCKED: BRANCH  13  17
DOCKED: ATOM     17  C   UNL     1      13.504  -9.007  -0.425 -0.19 -0.00    +0.000 C 
DOCKED: ATOM     18  C   UNL     1      15.016  -9.099  -0.181 -0.26 -0.00    +0.000 C 
DOCKED: ENDBRANCH  13  17
DOCKED: ENDBRANCH  12  13
DOCKED: ENDBRANCH   7  12
DOCKED: ENDBRANCH   1   2
DOCKED: BRANCH   1  19
DOCKED: ATOM     19  O   UNL     1      20.338 -10.410  -6.489 -0.30 -0.00    +0.000 OA
DOCKED: BRANCH  19  21
DOCKED: ATOM     20  O   UNL     1      20.528 -12.119  -4.952 -0.74 -0.00    +0.000 OA
DOCKED: ATOM     21  C   UNL     1      20.294 -10.901  -5.181 -0.46 -0.00    +0.000 C 
DOCKED: ATOM     22  N   UNL     1      19.934 -10.010  -4.116 -0.31 -0.00    +0.000 N 
DOCKED: ATOM     23  H   UNL     1      19.645  -9.100  -4.355 +0.00 -0.00    +0.000 HD
DOCKED: BRANCH  22  24
DOCKED: ATOM     24  C   UNL     1      19.970 -10.358  -2.721 -0.42 -0.00    +0.000 A 
DOCKED: ATOM     25  C   UNL     1      21.208 -10.502  -2.079 -0.51 -0.00    +0.000 A 
DOCKED: ATOM     26  C   UNL     1      21.273 -10.865  -0.732 -0.47 -0.00    +0.000 A 
DOCKED: ATOM     27  C   UNL     1      20.096 -11.115  -0.002 -0.53 -0.00    +0.000 A 
DOCKED: ATOM     28  C   UNL     1      18.855 -10.977  -0.651 -0.42 -0.00    +0.000 A 
DOCKED: ATOM     29  C   UNL     1      18.793 -10.613  -1.999 -0.33 -0.00    +0.000 A 
DOCKED: BRANCH  27  30
DOCKED: ATOM     30  C   UNL     1      20.143 -11.504   1.429 -0.75 -0.00    +0.000 C 
DOCKED: ATOM     31  N   UNL     1      20.355 -10.534   2.461 -0.63 -0.00    +0.000 N 
DOCKED: ATOM     32  O   UNL     1      20.291 -10.899   3.762 -1.20 -0.00    +0.000 OA
DOCKED: ATOM     33  O   UNL     1      20.009 -12.717   1.748 -1.60 -0.00    +0.000 OA
DOCKED: ATOM     34  H   UNL     1      20.548  -9.599   2.222 -0.52 -0.00    +0.000 HD
DOCKED: ENDBRANCH  27  30
DOCKED: ENDBRANCH  22  24
DOCKED: ENDBRANCH  19  21
DOCKED: ENDBRANCH   1  19
DOCKED: TORSDOF 9
DOCKED: TER
DOCKED: ENDMDL
________________________________________________________________________________


	BEGINNING GENETIC ALGORITHM DOCKING 28 of 100
Run: 28 Seed: 1070823478 1808460344 [ Run 28 of 100 GA/GALS ]
Beginning LAMARCKIAN GENETIC ALGORITHM (LGA), with a maximum of 2500000 energy evaluations.

Final-Value: -16.303


	FINAL GENETIC ALGORITHM DOCKED STATE
	_______________________________________________


Detailed state:  trans 20.015 -10.987 -4.918 quatxyzw 0.168438 0.198344 0.016631 -0.965408 center 1.619 0.086 0.013 ntor 9 168.3679 180.0000 68.5753 -151.4782 146.9391 -104.2372 75.9857 -164.1504 129.2929
State:	 20.015 -10.987  -4.918   0.646  0.761  0.064 -30.229    168.37  180.00   68.58 -151.48  146.94 -104.24   75.99 -164.15  129.29

DOCKED: MODEL       28
DOCKED: USER    Run = 28
DOCKED: USER    DPF = ligand_dock.biased.dpf
DOCKED: USER  
DOCKED: USER    Estimated Free Energy of Binding    =  -11.43 kcal/mol  [=(1)+(2)+(3)-(4)]
DOCKED: USER    Estimated Inhibition Constant, Ki   =    4.15 nM (nanomolar)  [Temperature = 298.15 K]
DOCKED: USER    
DOCKED: USER    (1) Final Intermolecular Energy     =  -14.12 kcal/mol
DOCKED: USER        vdW + Hbond + desolv Energy     =  -14.12 kcal/mol
DOCKED: USER        Electrostatic Energy            =   +0.00 kcal/mol
DOCKED: USER    (2) Final Total Internal Energy     =   -2.18 kcal/mol
DOCKED: USER    (3) Torsional Free Energy           =   +2.68 kcal/mol
DOCKED: USER    (4) Unbound System's Energy  [=(2)] =   -2.18 kcal/mol
DOCKED: USER    
DOCKED: USER    
DOCKED: USER    NEWDPF move ligand.pdbqt
DOCKED: USER    NEWDPF about 1.619000 0.086000 0.013000
DOCKED: USER    NEWDPF tran0 20.015410 -10.986957 -4.917737
DOCKED: USER    NEWDPF quaternion0 0.168438 0.198344 0.016631 -0.965408
DOCKED: USER    NEWDPF axisangle0 0.645985 0.760681 0.063784 -30.228607
DOCKED: USER    NEWDPF quat0 0.645985 0.760681 0.063784 -30.228607
DOCKED: USER    NEWDPF dihe0 168.37 180.00 68.58 -151.48 146.94 -104.24 75.99 -164.15 129.29 
DOCKED: USER  keepresnum = 1 
DOCKED: USER  
DOCKED: REMARK  Name = 
DOCKED: REMARK  11 active torsions:
DOCKED: REMARK  status: ('A' for Active; 'I' for Inactive)
DOCKED: REMARK    1  A    between atoms: C_2  and  O_3
DOCKED: REMARK    2  A    between atoms: O_3  and  C_4
DOCKED: REMARK    3  A    between atoms: C_4  and  C_5
DOCKED: REMARK    4  A    between atoms: C_10  and  C_11
DOCKED: REMARK    5  A    between atoms: C_11  and  N_12
DOCKED: REMARK    6  A    between atoms: N_12  and  C_13
DOCKED: REMARK    7  A    between atoms: N_12  and  C_15
DOCKED: REMARK    8  A    between atoms: C_13  and  C_14
DOCKED: REMARK    9  A    between atoms: C_15  and  C_16
DOCKED: REMARK   10  A    between atoms: N_21  and  C_22
DOCKED: REMARK   11  A    between atoms: C_25  and  C_26
DOCKED: REMARK                            x       y       z     vdW  Elec       q    Type
DOCKED: REMARK                         _______ _______ _______ _____ _____    ______ ____
DOCKED: USER                              x       y       z     vdW  Elec       q    Type
DOCKED: USER                           _______ _______ _______ _____ _____    ______ ____
DOCKED: ROOT
DOCKED: ATOM      1  C   UNL     1      19.422 -10.511  -7.189 -0.30 -0.00    +0.000 C 
DOCKED: ENDROOT
DOCKED: BRANCH   1   2
DOCKED: ATOM      2  C   UNL     1      18.127 -10.637  -6.440 -0.29 -0.00    +0.000 A 
DOCKED: ATOM      3  C   UNL     1      17.205 -11.642  -6.770 -0.33 -0.00    +0.000 A 
DOCKED: ATOM      4  C   UNL     1      15.993 -11.744  -6.081 -0.19 -0.00    +0.000 A 
DOCKED: ATOM      5  C   UNL     1      15.681 -10.833  -5.062 -0.22 -0.00    +0.000 A 
DOCKED: ATOM      6  C   UNL     1      14.462 -10.922  -4.372 -0.25 -0.00    +0.000 A 
DOCKED: ATOM      7  C   UNL     1      14.138  -9.987  -3.375 -0.21 -0.00    +0.000 A 
DOCKED: ATOM      8  C   UNL     1      15.063  -8.984  -3.044 -0.18 -0.00    +0.000 A 
DOCKED: ATOM      9  C   UNL     1      16.283  -8.892  -3.721 -0.15 -0.00    +0.000 A 
DOCKED: ATOM     10  C   UNL     1      16.599  -9.808  -4.734 -0.19 -0.00    +0.000 A 
DOCKED: ATOM     11  C   UNL     1      17.818  -9.718  -5.425 -0.19 -0.00    +0.000 A 
DOCKED: BRANCH   7  12
DOCKED: ATOM     12  C   UNL     1      12.832 -10.096  -2.631 -0.23 -0.00    +0.000 C 
DOCKED: BRANCH  12  13
DOCKED: ATOM     13  N   UNL     1      13.011 -10.814  -1.350 -0.29 -0.00    +0.000 N 
DOCKED: ATOM     14  H   UNL     1      12.582 -11.718  -1.549 -0.02 +0.00    +0.000 HD
DOCKED: BRANCH  13  15
DOCKED: ATOM     15  C   UNL     1      14.417 -11.134  -1.022 -0.35 +0.00    +0.000 C 
DOCKED: ATOM     16  C   UNL     1      14.690 -12.633  -0.883 -0.46 +0.00    +0.000 C 
DOCKED: ENDBRANCH  13  15
DOCKED: BRANCH  13  17
DOCKED: ATOM     17  C   UNL     1      12.185 -10.356  -0.203 -0.27 +0.00    +0.000 C 
DOCKED: ATOM     18  C   UNL     1      11.597 -11.481   0.659 -0.41 +0.00    +0.000 C 
DOCKED: ENDBRANCH  13  17
DOCKED: ENDBRANCH  12  13
DOCKED: ENDBRANCH   7  12
DOCKED: ENDBRANCH   1   2
DOCKED: BRANCH   1  19
DOCKED: ATOM     19  O   UNL     1      20.506 -10.599  -6.271 -0.34 -0.00    +0.000 OA
DOCKED: BRANCH  19  21
DOCKED: ATOM     20  O   UNL     1      20.229 -12.282  -4.719 -0.72 -0.00    +0.000 OA
DOCKED: ATOM     21  C   UNL     1      20.351 -11.049  -4.957 -0.49 -0.00    +0.000 C 
DOCKED: ATOM     22  N   UNL     1      20.284 -10.088  -3.895 -0.36 -0.00    +0.000 N 
DOCKED: ATOM     23  H   UNL     1      20.264  -9.134  -4.138 +0.00 -0.00    +0.000 HD
DOCKED: BRANCH  22  24
DOCKED: ATOM     24  C   UNL     1      20.247 -10.424  -2.498 -0.45 -0.00    +0.000 A 
DOCKED: ATOM     25  C   UNL     1      21.355 -10.130  -1.689 -0.54 -0.00    +0.000 A 
DOCKED: ATOM     26  C   UNL     1      21.356 -10.469  -0.334 -0.63 -0.00    +0.000 A 
DOCKED: ATOM     27  C   UNL     1      20.254 -11.133   0.237 -0.57 -0.00    +0.000 A 
DOCKED: ATOM     28  C   UNL     1      19.147 -11.433  -0.578 -0.43 -0.00    +0.000 A 
DOCKED: ATOM     29  C   UNL     1      19.148 -11.092  -1.933 -0.35 -0.00    +0.000 A 
DOCKED: BRANCH  27  30
DOCKED: ATOM     30  C   UNL     1      20.238 -11.504   1.674 -0.77 -0.00    +0.000 C 
DOCKED: ATOM     31  N   UNL     1      20.632 -10.576   2.691 -0.62 -0.00    +0.000 N 
DOCKED: ATOM     32  O   UNL     1      20.509 -10.905   3.997 -1.10 -0.00    +0.000 OA
DOCKED: ATOM     33  O   UNL     1      19.883 -12.667   2.012 -1.65 -0.00    +0.000 OA
DOCKED: ATOM     34  H   UNL     1      20.993  -9.696   2.437 -0.57 -0.00    +0.000 HD
DOCKED: ENDBRANCH  27  30
DOCKED: ENDBRANCH  22  24
DOCKED: ENDBRANCH  19  21
DOCKED: ENDBRANCH   1  19
DOCKED: TORSDOF 9
DOCKED: TER
DOCKED: ENDMDL
________________________________________________________________________________


	BEGINNING GENETIC ALGORITHM DOCKING 29 of 100
Run: 29 Seed: 1456755373 1670608093 [ Run 29 of 100 GA/GALS ]
Beginning LAMARCKIAN GENETIC ALGORITHM (LGA), with a maximum of 2500000 energy evaluations.

Final-Value: -14.842


	FINAL GENETIC ALGORITHM DOCKED STATE
	_______________________________________________


Detailed state:  trans 20.212 -9.141 0.499 quatxyzw -0.748270 0.071959 0.146087 -0.643095 center 1.619 0.086 0.013 ntor 9 -138.1299 178.7236 -137.7723 30.7781 -180.0000 21.1701 -172.1648 91.4006 163.2821
State:	 20.212  -9.141   0.499  -0.977  0.094  0.191 -99.954   -138.13  178.72 -137.77   30.78 -180.00   21.17 -172.16   91.40  163.28

DOCKED: MODEL       29
DOCKED: USER    Run = 29
DOCKED: USER    DPF = ligand_dock.biased.dpf
DOCKED: USER  
DOCKED: USER    Estimated Free Energy of Binding    =  -10.48 kcal/mol  [=(1)+(2)+(3)-(4)]
DOCKED: USER    Estimated Inhibition Constant, Ki   =   20.86 nM (nanomolar)  [Temperature = 298.15 K]
DOCKED: USER    
DOCKED: USER    (1) Final Intermolecular Energy     =  -13.16 kcal/mol
DOCKED: USER        vdW + Hbond + desolv Energy     =  -13.16 kcal/mol
DOCKED: USER        Electrostatic Energy            =   +0.00 kcal/mol
DOCKED: USER    (2) Final Total Internal Energy     =   -1.68 kcal/mol
DOCKED: USER    (3) Torsional Free Energy           =   +2.68 kcal/mol
DOCKED: USER    (4) Unbound System's Energy  [=(2)] =   -1.68 kcal/mol
DOCKED: USER    
DOCKED: USER    
DOCKED: USER    NEWDPF move ligand.pdbqt
DOCKED: USER    NEWDPF about 1.619000 0.086000 0.013000
DOCKED: USER    NEWDPF tran0 20.212416 -9.141364 0.498526
DOCKED: USER    NEWDPF quaternion0 -0.748270 0.071959 0.146087 -0.643095
DOCKED: USER    NEWDPF axisangle0 -0.977127 0.093968 0.190768 -99.953953
DOCKED: USER    NEWDPF quat0 -0.977127 0.093968 0.190768 -99.953953
DOCKED: USER    NEWDPF dihe0 -138.13 178.72 -137.77 30.78 -180.00 21.17 -172.16 91.40 163.28 
DOCKED: USER  keepresnum = 1 
DOCKED: USER  
DOCKED: REMARK  Name = 
DOCKED: REMARK  11 active torsions:
DOCKED: REMARK  status: ('A' for Active; 'I' for Inactive)
DOCKED: REMARK    1  A    between atoms: C_2  and  O_3
DOCKED: REMARK    2  A    between atoms: O_3  and  C_4
DOCKED: REMARK    3  A    between atoms: C_4  and  C_5
DOCKED: REMARK    4  A    between atoms: C_10  and  C_11
DOCKED: REMARK    5  A    between atoms: C_11  and  N_12
DOCKED: REMARK    6  A    between atoms: N_12  and  C_13
DOCKED: REMARK    7  A    between atoms: N_12  and  C_15
DOCKED: REMARK    8  A    between atoms: C_13  and  C_14
DOCKED: REMARK    9  A    between atoms: C_15  and  C_16
DOCKED: REMARK   10  A    between atoms: N_21  and  C_22
DOCKED: REMARK   11  A    between atoms: C_25  and  C_26
DOCKED: REMARK                            x       y       z     vdW  Elec       q    Type
DOCKED: REMARK                         _______ _______ _______ _____ _____    ______ ____
DOCKED: USER                              x       y       z     vdW  Elec       q    Type
DOCKED: USER                           _______ _______ _______ _____ _____    ______ ____
DOCKED: ROOT
DOCKED: ATOM      1  C   UNL     1      20.944 -11.367   0.999 -0.65 -0.00    +0.000 C 
DOCKED: ENDROOT
DOCKED: BRANCH   1   2
DOCKED: ATOM      2  C   UNL     1      19.486 -11.318   1.358 -0.59 -0.00    +0.000 A 
DOCKED: ATOM      3  C   UNL     1      19.073 -10.824   2.605 -0.57 -0.00    +0.000 A 
DOCKED: ATOM      4  C   UNL     1      17.716 -10.797   2.941 -0.44 +0.00    +0.000 A 
DOCKED: ATOM      5  C   UNL     1      16.756 -11.278   2.040 -0.39 +0.00    +0.000 A 
DOCKED: ATOM      6  C   UNL     1      15.393 -11.264   2.374 -0.43 +0.00    +0.000 A 
DOCKED: ATOM      7  C   UNL     1      14.437 -11.778   1.483 -0.42 +0.00    +0.000 A 
DOCKED: ATOM      8  C   UNL     1      14.851 -12.270   0.234 -0.44 +0.00    +0.000 A 
DOCKED: ATOM      9  C   UNL     1      16.207 -12.280  -0.109 -0.45 +0.00    +0.000 A 
DOCKED: ATOM     10  C   UNL     1      17.167 -11.792   0.788 -0.43 +0.00    +0.000 A 
DOCKED: ATOM     11  C   UNL     1      18.530 -11.807   0.454 -0.50 -0.00    +0.000 A 
DOCKED: BRANCH   7  12
DOCKED: ATOM     12  C   UNL     1      12.973 -11.749   1.843 -0.34 +0.00    +0.000 C 
DOCKED: BRANCH  12  13
DOCKED: ATOM     13  N   UNL     1      12.171 -11.150   0.754 -0.35 +0.00    +0.000 N 
DOCKED: ATOM     14  H   UNL     1      12.141 -11.907   0.069 -0.04 +0.00    +0.000 HD
DOCKED: BRANCH  13  15
DOCKED: ATOM     15  C   UNL     1      10.754 -10.910   1.103 -0.33 +0.00    +0.000 C 
DOCKED: ATOM     16  C   UNL     1       9.955 -12.192   1.350 -0.41 +0.00    +0.000 C 
DOCKED: ENDBRANCH  13  15
DOCKED: BRANCH  13  17
DOCKED: ATOM     17  C   UNL     1      12.816 -10.074  -0.040 -0.23 +0.00    +0.000 C 
DOCKED: ATOM     18  C   UNL     1      12.587 -10.165  -1.556 -0.25 -0.00    +0.000 C 
DOCKED: ENDBRANCH  13  17
DOCKED: ENDBRANCH  12  13
DOCKED: ENDBRANCH   7  12
DOCKED: ENDBRANCH   1   2
DOCKED: BRANCH   1  19
DOCKED: ATOM     19  O   UNL     1      21.319 -10.135   0.393 -0.74 -0.00    +0.000 OA
DOCKED: BRANCH  19  21
DOCKED: ATOM     20  O   UNL     1      21.754  -8.876  -1.491 -0.58 -0.00    +0.000 OA
DOCKED: ATOM     21  C   UNL     1      21.256  -9.921  -0.987 -0.67 -0.00    +0.000 C 
DOCKED: ATOM     22  N   UNL     1      20.579 -10.880  -1.811 -0.47 -0.00    +0.000 N 
DOCKED: ATOM     23  H   UNL     1      20.104 -11.617  -1.363 -0.02 -0.00    +0.000 HD
DOCKED: BRANCH  22  24
DOCKED: ATOM     24  C   UNL     1      20.549 -10.838  -3.247 -0.42 -0.00    +0.000 A 
DOCKED: ATOM     25  C   UNL     1      19.313 -10.819  -3.909 -0.37 -0.00    +0.000 A 
DOCKED: ATOM     26  C   UNL     1      19.254 -10.804  -5.305 -0.35 -0.00    +0.000 A 
DOCKED: ATOM     27  C   UNL     1      20.435 -10.831  -6.070 -0.34 -0.00    +0.000 A 
DOCKED: ATOM     28  C   UNL     1      21.674 -10.857  -5.404 -0.44 -0.00    +0.000 A 
DOCKED: ATOM     29  C   UNL     1      21.730 -10.871  -4.007 -0.42 -0.00    +0.000 A 
DOCKED: BRANCH  27  30
DOCKED: ATOM     30  C   UNL     1      20.393 -10.819  -7.554 -0.22 -0.00    +0.000 C 
DOCKED: ATOM     31  N   UNL     1      21.508 -11.260  -8.336 -0.25 -0.00    +0.000 N 
DOCKED: ATOM     32  O   UNL     1      21.407 -11.336  -9.683 -0.23 -0.00    +0.000 OA
DOCKED: ATOM     33  O   UNL     1      19.360 -10.399  -8.143 -0.27 -0.00    +0.000 OA
DOCKED: ATOM     34  H   UNL     1      22.351 -11.507  -7.893 -0.12 -0.00    +0.000 HD
DOCKED: ENDBRANCH  27  30
DOCKED: ENDBRANCH  22  24
DOCKED: ENDBRANCH  19  21
DOCKED: ENDBRANCH   1  19
DOCKED: TORSDOF 9
DOCKED: TER
DOCKED: ENDMDL
________________________________________________________________________________


	BEGINNING GENETIC ALGORITHM DOCKING 30 of 100
Run: 30 Seed: 300013309 1860297936 [ Run 30 of 100 GA/GALS ]
Beginning LAMARCKIAN GENETIC ALGORITHM (LGA), with a maximum of 2500000 energy evaluations.

Final-Value: -14.585


	FINAL GENETIC ALGORITHM DOCKED STATE
	_______________________________________________


Detailed state:  trans 18.927 -12.859 -0.070 quatxyzw -0.470335 0.600017 -0.362503 0.536056 center 1.619 0.086 0.013 ntor 9 48.6477 57.0758 -65.2172 152.5767 -180.0000 -117.3188 154.4575 114.7987 -40.9309
State:	 18.927 -12.859  -0.070  -0.557  0.711 -0.429 115.169     48.65   57.08  -65.22  152.58 -180.00 -117.32  154.46  114.80  -40.93

DOCKED: MODEL       30
DOCKED: USER    Run = 30
DOCKED: USER    DPF = ligand_dock.biased.dpf
DOCKED: USER  
DOCKED: USER    Estimated Free Energy of Binding    =  -10.25 kcal/mol  [=(1)+(2)+(3)-(4)]
DOCKED: USER    Estimated Inhibition Constant, Ki   =   30.70 nM (nanomolar)  [Temperature = 298.15 K]
DOCKED: USER    
DOCKED: USER    (1) Final Intermolecular Energy     =  -12.93 kcal/mol
DOCKED: USER        vdW + Hbond + desolv Energy     =  -12.93 kcal/mol
DOCKED: USER        Electrostatic Energy            =   +0.00 kcal/mol
DOCKED: USER    (2) Final Total Internal Energy     =   -1.65 kcal/mol
DOCKED: USER    (3) Torsional Free Energy           =   +2.68 kcal/mol
DOCKED: USER    (4) Unbound System's Energy  [=(2)] =   -1.65 kcal/mol
DOCKED: USER    
DOCKED: USER    
DOCKED: USER    NEWDPF move ligand.pdbqt
DOCKED: USER    NEWDPF about 1.619000 0.086000 0.013000
DOCKED: USER    NEWDPF tran0 18.926877 -12.859375 -0.070347
DOCKED: USER    NEWDPF quaternion0 -0.470335 0.600017 -0.362503 0.536056
DOCKED: USER    NEWDPF axisangle0 -0.557148 0.710767 -0.429413 115.168893
DOCKED: USER    NEWDPF quat0 -0.557148 0.710767 -0.429413 115.168893
DOCKED: USER    NEWDPF dihe0 48.65 57.08 -65.22 152.58 -180.00 -117.32 154.46 114.80 -40.93 
DOCKED: USER  keepresnum = 1 
DOCKED: USER  
DOCKED: REMARK  Name = 
DOCKED: REMARK  11 active torsions:
DOCKED: REMARK  status: ('A' for Active; 'I' for Inactive)
DOCKED: REMARK    1  A    between atoms: C_2  and  O_3
DOCKED: REMARK    2  A    between atoms: O_3  and  C_4
DOCKED: REMARK    3  A    between atoms: C_4  and  C_5
DOCKED: REMARK    4  A    between atoms: C_10  and  C_11
DOCKED: REMARK    5  A    between atoms: C_11  and  N_12
DOCKED: REMARK    6  A    between atoms: N_12  and  C_13
DOCKED: REMARK    7  A    between atoms: N_12  and  C_15
DOCKED: REMARK    8  A    between atoms: C_13  and  C_14
DOCKED: REMARK    9  A    between atoms: C_15  and  C_16
DOCKED: REMARK   10  A    between atoms: N_21  and  C_22
DOCKED: REMARK   11  A    between atoms: C_25  and  C_26
DOCKED: REMARK                            x       y       z     vdW  Elec       q    Type
DOCKED: REMARK                         _______ _______ _______ _____ _____    ______ ____
DOCKED: USER                              x       y       z     vdW  Elec       q    Type
DOCKED: USER                           _______ _______ _______ _____ _____    ______ ____
DOCKED: ROOT
DOCKED: ATOM      1  C   UNL     1      19.953 -10.815   0.641 -0.65 -0.00    +0.000 C 
DOCKED: ENDROOT
DOCKED: BRANCH   1   2
DOCKED: ATOM      2  C   UNL     1      19.790 -10.702  -0.848 -0.47 -0.00    +0.000 A 
DOCKED: ATOM      3  C   UNL     1      18.521 -10.518  -1.416 -0.27 -0.00    +0.000 A 
DOCKED: ATOM      4  C   UNL     1      18.373 -10.431  -2.804 -0.27 -0.00    +0.000 A 
DOCKED: ATOM      5  C   UNL     1      19.491 -10.542  -3.642 -0.37 -0.00    +0.000 A 
DOCKED: ATOM      6  C   UNL     1      19.351 -10.466  -5.036 -0.32 -0.00    +0.000 A 
DOCKED: ATOM      7  C   UNL     1      20.469 -10.613  -5.874 -0.34 -0.00    +0.000 A 
DOCKED: ATOM      8  C   UNL     1      21.739 -10.795  -5.303 -0.44 -0.00    +0.000 A 
DOCKED: ATOM      9  C   UNL     1      21.889 -10.864  -3.915 -0.29 -0.00    +0.000 A 
DOCKED: ATOM     10  C   UNL     1      20.772 -10.744  -3.076 -0.42 -0.00    +0.000 A 
DOCKED: ATOM     11  C   UNL     1      20.913 -10.821  -1.682 -0.37 -0.00    +0.000 A 
DOCKED: BRANCH   7  12
DOCKED: ATOM     12  C   UNL     1      20.311 -10.519  -7.370 -0.29 -0.00    +0.000 C 
DOCKED: BRANCH  12  13
DOCKED: ATOM     13  N   UNL     1      21.283  -9.565  -7.946 -0.16 -0.00    +0.000 N 
DOCKED: ATOM     14  H   UNL     1      20.877  -9.372  -8.863 +0.00 -0.00    +0.000 HD
DOCKED: BRANCH  13  15
DOCKED: ATOM     15  C   UNL     1      21.317  -8.249  -7.273 -0.12 -0.00    +0.000 C 
DOCKED: ATOM     16  C   UNL     1      22.688  -7.889  -6.694 -0.18 -0.00    +0.000 C 
DOCKED: ENDBRANCH  13  15
DOCKED: BRANCH  13  17
DOCKED: ATOM     17  C   UNL     1      22.610 -10.110  -8.333 -0.23 -0.00    +0.000 C 
DOCKED: ATOM     18  C   UNL     1      22.674 -11.640  -8.434 -0.36 -0.00    +0.000 C 
DOCKED: ENDBRANCH  13  17
DOCKED: ENDBRANCH  12  13
DOCKED: ENDBRANCH   7  12
DOCKED: ENDBRANCH   1   2
DOCKED: BRANCH   1  19
DOCKED: ATOM     19  O   UNL     1      19.340 -12.019   1.090 -1.22 -0.00    +0.000 OA
DOCKED: BRANCH  19  21
DOCKED: ATOM     20  O   UNL     1      17.496 -13.401   0.999 -0.81 +0.00    +0.000 OA
DOCKED: ATOM     21  C   UNL     1      17.959 -12.228   1.043 -0.55 +0.00    +0.000 C 
DOCKED: ATOM     22  N   UNL     1      17.084 -11.093   0.999 -0.37 +0.00    +0.000 N 
DOCKED: ATOM     23  H   UNL     1      17.492 -10.201   0.915 -0.01 -0.00    +0.000 HD
DOCKED: BRANCH  22  24
DOCKED: ATOM     24  C   UNL     1      15.650 -11.171   1.070 -0.34 +0.00    +0.000 A 
DOCKED: ATOM     25  C   UNL     1      15.010 -10.958   2.299 -0.39 +0.00    +0.000 A 
DOCKED: ATOM     26  C   UNL     1      13.620 -11.053   2.403 -0.34 +0.00    +0.000 A 
DOCKED: ATOM     27  C   UNL     1      12.841 -11.388   1.280 -0.37 +0.00    +0.000 A 
DOCKED: ATOM     28  C   UNL     1      13.487 -11.608   0.049 -0.37 +0.00    +0.000 A 
DOCKED: ATOM     29  C   UNL     1      14.877 -11.512  -0.052 -0.35 +0.00    +0.000 A 
DOCKED: BRANCH  27  30
DOCKED: ATOM     30  C   UNL     1      11.364 -11.497   1.370 -0.42 +0.00    +0.000 C 
DOCKED: ATOM     31  N   UNL     1      10.726 -12.723   1.746 -0.46 +0.00    +0.000 N 
DOCKED: ATOM     32  O   UNL     1       9.386 -12.767   1.921 -0.50 +0.00    +0.000 OA
DOCKED: ATOM     33  O   UNL     1      10.649 -10.494   1.097 -0.25 +0.00    +0.000 OA
DOCKED: ATOM     34  H   UNL     1      11.266 -13.535   1.877 -0.64 +0.00    +0.000 HD
DOCKED: ENDBRANCH  27  30
DOCKED: ENDBRANCH  22  24
DOCKED: ENDBRANCH  19  21
DOCKED: ENDBRANCH   1  19
DOCKED: TORSDOF 9
DOCKED: TER
DOCKED: ENDMDL
________________________________________________________________________________


	BEGINNING GENETIC ALGORITHM DOCKING 31 of 100
Run: 31 Seed: 813680040 100346879 [ Run 31 of 100 GA/GALS ]
Beginning LAMARCKIAN GENETIC ALGORITHM (LGA), with a maximum of 2500000 energy evaluations.

Final-Value: -15.038


	FINAL GENETIC ALGORITHM DOCKED STATE
	_______________________________________________


Detailed state:  trans 20.048 -9.523 0.510 quatxyzw 0.827649 -0.046971 -0.078238 0.553777 center 1.619 0.086 0.013 ntor 9 -101.1117 174.8742 180.0000 24.0208 163.5675 157.3351 -116.5403 104.3651 164.0197
State:	 20.048  -9.523   0.510   0.994 -0.056 -0.094 112.747   -101.11  174.87  180.00   24.02  163.57  157.34 -116.54  104.37  164.02

DOCKED: MODEL       31
DOCKED: USER    Run = 31
DOCKED: USER    DPF = ligand_dock.biased.dpf
DOCKED: USER  
DOCKED: USER    Estimated Free Energy of Binding    =  -10.43 kcal/mol  [=(1)+(2)+(3)-(4)]
DOCKED: USER    Estimated Inhibition Constant, Ki   =   22.75 nM (nanomolar)  [Temperature = 298.15 K]
DOCKED: USER    
DOCKED: USER    (1) Final Intermolecular Energy     =  -13.11 kcal/mol
DOCKED: USER        vdW + Hbond + desolv Energy     =  -13.11 kcal/mol
DOCKED: USER        Electrostatic Energy            =   +0.00 kcal/mol
DOCKED: USER    (2) Final Total Internal Energy     =   -1.93 kcal/mol
DOCKED: USER    (3) Torsional Free Energy           =   +2.68 kcal/mol
DOCKED: USER    (4) Unbound System's Energy  [=(2)] =   -1.93 kcal/mol
DOCKED: USER    
DOCKED: USER    
DOCKED: USER    NEWDPF move ligand.pdbqt
DOCKED: USER    NEWDPF about 1.619000 0.086000 0.013000
DOCKED: USER    NEWDPF tran0 20.048491 -9.523300 0.510467
DOCKED: USER    NEWDPF quaternion0 0.827649 -0.046971 -0.078238 0.553777
DOCKED: USER    NEWDPF axisangle0 0.993976 -0.056411 -0.093961 112.746957
DOCKED: USER    NEWDPF quat0 0.993976 -0.056411 -0.093961 112.746957
DOCKED: USER    NEWDPF dihe0 -101.11 174.87 180.00 24.02 163.57 157.34 -116.54 104.37 164.02 
DOCKED: USER  keepresnum = 1 
DOCKED: USER  
DOCKED: REMARK  Name = 
DOCKED: REMARK  11 active torsions:
DOCKED: REMARK  status: ('A' for Active; 'I' for Inactive)
DOCKED: REMARK    1  A    between atoms: C_2  and  O_3
DOCKED: REMARK    2  A    between atoms: O_3  and  C_4
DOCKED: REMARK    3  A    between atoms: C_4  and  C_5
DOCKED: REMARK    4  A    between atoms: C_10  and  C_11
DOCKED: REMARK    5  A    between atoms: C_11  and  N_12
DOCKED: REMARK    6  A    between atoms: N_12  and  C_13
DOCKED: REMARK    7  A    between atoms: N_12  and  C_15
DOCKED: REMARK    8  A    between atoms: C_13  and  C_14
DOCKED: REMARK    9  A    between atoms: C_15  and  C_16
DOCKED: REMARK   10  A    between atoms: N_21  and  C_22
DOCKED: REMARK   11  A    between atoms: C_25  and  C_26
DOCKED: REMARK                            x       y       z     vdW  Elec       q    Type
DOCKED: REMARK                         _______ _______ _______ _____ _____    ______ ____
DOCKED: USER                              x       y       z     vdW  Elec       q    Type
DOCKED: USER                           _______ _______ _______ _____ _____    ______ ____
DOCKED: ROOT
DOCKED: ATOM      1  C   UNL     1      20.636 -11.563   1.620 -0.77 -0.00    +0.000 C 
DOCKED: ENDROOT
DOCKED: BRANCH   1   2
DOCKED: ATOM      2  C   UNL     1      19.144 -11.438   1.744 -0.58 -0.00    +0.000 A 
DOCKED: ATOM      3  C   UNL     1      18.575 -10.653   2.757 -0.51 -0.00    +0.000 A 
DOCKED: ATOM      4  C   UNL     1      17.185 -10.553   2.879 -0.44 +0.00    +0.000 A 
DOCKED: ATOM      5  C   UNL     1      16.348 -11.251   1.997 -0.39 +0.00    +0.000 A 
DOCKED: ATOM      6  C   UNL     1      14.952 -11.165   2.118 -0.40 +0.00    +0.000 A 
DOCKED: ATOM      7  C   UNL     1      14.117 -11.892   1.255 -0.41 +0.00    +0.000 A 
DOCKED: ATOM      8  C   UNL     1      14.688 -12.676   0.240 -0.44 +0.00    +0.000 A 
DOCKED: ATOM      9  C   UNL     1      16.078 -12.761   0.107 -0.48 +0.00    +0.000 A 
DOCKED: ATOM     10  C   UNL     1      16.916 -12.057   0.983 -0.44 +0.00    +0.000 A 
DOCKED: ATOM     11  C   UNL     1      18.311 -12.144   0.862 -0.50 -0.00    +0.000 A 
DOCKED: BRANCH   7  12
DOCKED: ATOM     12  C   UNL     1      12.618 -11.786   1.384 -0.42 +0.00    +0.000 C 
DOCKED: BRANCH  12  13
DOCKED: ATOM     13  N   UNL     1      12.032 -11.112   0.206 -0.33 +0.00    +0.000 N 
DOCKED: ATOM     14  H   UNL     1      12.175 -11.804  -0.531 -0.04 +0.00    +0.000 HD
DOCKED: BRANCH  13  15
DOCKED: ATOM     15  C   UNL     1      10.565 -10.938   0.271 -0.30 +0.00    +0.000 C 
DOCKED: ATOM     16  C   UNL     1       9.853 -12.015   1.094 -0.42 +0.00    +0.000 C 
DOCKED: ENDBRANCH  13  15
DOCKED: BRANCH  13  17
DOCKED: ATOM     17  C   UNL     1      12.780  -9.953  -0.346 -0.22 +0.00    +0.000 C 
DOCKED: ATOM     18  C   UNL     1      12.950  -9.962  -1.872 -0.24 -0.00    +0.000 C 
DOCKED: ENDBRANCH  13  17
DOCKED: ENDBRANCH  12  13
DOCKED: ENDBRANCH   7  12
DOCKED: ENDBRANCH   1   2
DOCKED: BRANCH   1  19
DOCKED: ATOM     19  O   UNL     1      21.129 -10.508   0.802 -0.74 -0.00    +0.000 OA
DOCKED: BRANCH  19  21
DOCKED: ATOM     20  O   UNL     1      22.066 -10.562  -1.306 -0.60 -0.00    +0.000 OA
DOCKED: ATOM     21  C   UNL     1      21.026 -10.520  -0.592 -0.68 -0.00    +0.000 C 
DOCKED: ATOM     22  N   UNL     1      19.727 -10.436  -1.195 -0.45 -0.00    +0.000 N 
DOCKED: ATOM     23  H   UNL     1      18.954 -10.285  -0.603 -0.01 -0.00    +0.000 HD
DOCKED: BRANCH  22  24
DOCKED: ATOM     24  C   UNL     1      19.478 -10.559  -2.605 -0.39 -0.00    +0.000 A 
DOCKED: ATOM     25  C   UNL     1      20.497 -11.029  -3.446 -0.35 -0.00    +0.000 A 
DOCKED: ATOM     26  C   UNL     1      20.291 -11.133  -4.823 -0.45 -0.00    +0.000 A 
DOCKED: ATOM     27  C   UNL     1      19.064 -10.747  -5.393 -0.33 -0.00    +0.000 A 
DOCKED: ATOM     28  C   UNL     1      18.045 -10.270  -4.549 -0.25 -0.00    +0.000 A 
DOCKED: ATOM     29  C   UNL     1      18.253 -10.167  -3.170 -0.27 -0.00    +0.000 A 
DOCKED: BRANCH  27  30
DOCKED: ATOM     30  C   UNL     1      18.826 -10.848  -6.855 -0.35 -0.00    +0.000 C 
DOCKED: ATOM     31  N   UNL     1      17.501 -10.921  -7.394 -0.30 -0.00    +0.000 N 
DOCKED: ATOM     32  O   UNL     1      17.310 -10.909  -8.732 -0.25 -0.00    +0.000 OA
DOCKED: ATOM     33  O   UNL     1      19.811 -10.885  -7.644 -0.34 -0.00    +0.000 OA
DOCKED: ATOM     34  H   UNL     1      16.729 -10.982  -6.787 -0.01 -0.00    +0.000 HD
DOCKED: ENDBRANCH  27  30
DOCKED: ENDBRANCH  22  24
DOCKED: ENDBRANCH  19  21
DOCKED: ENDBRANCH   1  19
DOCKED: TORSDOF 9
DOCKED: TER
DOCKED: ENDMDL
________________________________________________________________________________


	BEGINNING GENETIC ALGORITHM DOCKING 32 of 100
Run: 32 Seed: 1648058282 126668999 [ Run 32 of 100 GA/GALS ]
Beginning LAMARCKIAN GENETIC ALGORITHM (LGA), with a maximum of 2500000 energy evaluations.

Final-Value: -16.116


	FINAL GENETIC ALGORITHM DOCKED STATE
	_______________________________________________


Detailed state:  trans 19.962 -11.140 1.574 quatxyzw 0.932802 -0.087886 0.330636 0.113293 center 1.619 0.086 0.013 ntor 9 146.2026 133.3491 -14.1323 -72.2481 129.5330 -165.6917 -101.2095 176.2376 142.4210
State:	 19.962 -11.140   1.574   0.939 -0.088  0.333 166.990    146.20  133.35  -14.13  -72.25  129.53 -165.69 -101.21  176.24  142.42

DOCKED: MODEL       32
DOCKED: USER    Run = 32
DOCKED: USER    DPF = ligand_dock.biased.dpf
DOCKED: USER  
DOCKED: USER    Estimated Free Energy of Binding    =  -10.77 kcal/mol  [=(1)+(2)+(3)-(4)]
DOCKED: USER    Estimated Inhibition Constant, Ki   =   12.83 nM (nanomolar)  [Temperature = 298.15 K]
DOCKED: USER    
DOCKED: USER    (1) Final Intermolecular Energy     =  -13.45 kcal/mol
DOCKED: USER        vdW + Hbond + desolv Energy     =  -13.45 kcal/mol
DOCKED: USER        Electrostatic Energy            =   +0.00 kcal/mol
DOCKED: USER    (2) Final Total Internal Energy     =   -2.67 kcal/mol
DOCKED: USER    (3) Torsional Free Energy           =   +2.68 kcal/mol
DOCKED: USER    (4) Unbound System's Energy  [=(2)] =   -2.67 kcal/mol
DOCKED: USER    
DOCKED: USER    
DOCKED: USER    NEWDPF move ligand.pdbqt
DOCKED: USER    NEWDPF about 1.619000 0.086000 0.013000
DOCKED: USER    NEWDPF tran0 19.962378 -11.139660 1.574117
DOCKED: USER    NEWDPF quaternion0 0.932802 -0.087886 0.330636 0.113293
DOCKED: USER    NEWDPF axisangle0 0.938847 -0.088455 0.332779 166.989619
DOCKED: USER    NEWDPF quat0 0.938847 -0.088455 0.332779 166.989619
DOCKED: USER    NEWDPF dihe0 146.20 133.35 -14.13 -72.25 129.53 -165.69 -101.21 176.24 142.42 
DOCKED: USER  keepresnum = 1 
DOCKED: USER  
DOCKED: REMARK  Name = 
DOCKED: REMARK  11 active torsions:
DOCKED: REMARK  status: ('A' for Active; 'I' for Inactive)
DOCKED: REMARK    1  A    between atoms: C_2  and  O_3
DOCKED: REMARK    2  A    between atoms: O_3  and  C_4
DOCKED: REMARK    3  A    between atoms: C_4  and  C_5
DOCKED: REMARK    4  A    between atoms: C_10  and  C_11
DOCKED: REMARK    5  A    between atoms: C_11  and  N_12
DOCKED: REMARK    6  A    between atoms: N_12  and  C_13
DOCKED: REMARK    7  A    between atoms: N_12  and  C_15
DOCKED: REMARK    8  A    between atoms: C_13  and  C_14
DOCKED: REMARK    9  A    between atoms: C_15  and  C_16
DOCKED: REMARK   10  A    between atoms: N_21  and  C_22
DOCKED: REMARK   11  A    between atoms: C_25  and  C_26
DOCKED: REMARK                            x       y       z     vdW  Elec       q    Type
DOCKED: REMARK                         _______ _______ _______ _____ _____    ______ ____
DOCKED: USER                              x       y       z     vdW  Elec       q    Type
DOCKED: USER                           _______ _______ _______ _____ _____    ______ ____
DOCKED: ROOT
DOCKED: ATOM      1  C   UNL     1      18.772 -11.272   3.649 -0.35 -0.00    +0.000 C 
DOCKED: ENDROOT
DOCKED: BRANCH   1   2
DOCKED: ATOM      2  C   UNL     1      17.742 -10.970   2.598 -0.44 +0.00    +0.000 A 
DOCKED: ATOM      3  C   UNL     1      17.200  -9.682   2.478 -0.35 +0.00    +0.000 A 
DOCKED: ATOM      4  C   UNL     1      16.229  -9.409   1.510 -0.12 +0.00    +0.000 A 
DOCKED: ATOM      5  C   UNL     1      15.777 -10.427   0.658 -0.28 +0.00    +0.000 A 
DOCKED: ATOM      6  C   UNL     1      14.796 -10.165  -0.311 -0.24 +0.00    +0.000 A 
DOCKED: ATOM      7  C   UNL     1      14.320 -11.195  -1.139 -0.32 +0.00    +0.000 A 
DOCKED: ATOM      8  C   UNL     1      14.866 -12.483  -1.020 -0.40 +0.00    +0.000 A 
DOCKED: ATOM      9  C   UNL     1      15.850 -12.751  -0.063 -0.50 +0.00    +0.000 A 
DOCKED: ATOM     10  C   UNL     1      16.309 -11.732   0.783 -0.40 +0.00    +0.000 A 
DOCKED: ATOM     11  C   UNL     1      17.289 -11.994   1.752 -0.22 +0.00    +0.000 A 
DOCKED: BRANCH   7  12
DOCKED: ATOM     12  C   UNL     1      13.274 -10.903  -2.184 -0.26 -0.00    +0.000 C 
DOCKED: BRANCH  12  13
DOCKED: ATOM     13  N   UNL     1      13.878 -10.263  -3.374 -0.23 -0.00    +0.000 N 
DOCKED: ATOM     14  H   UNL     1      14.694  -9.798  -2.976 -0.00 -0.00    +0.000 HD
DOCKED: BRANCH  13  15
DOCKED: ATOM     15  C   UNL     1      14.436 -11.214  -4.359 -0.30 -0.00    +0.000 C 
DOCKED: ATOM     16  C   UNL     1      15.741 -10.740  -5.001 -0.25 -0.00    +0.000 C 
DOCKED: ENDBRANCH  13  15
DOCKED: BRANCH  13  17
DOCKED: ATOM     17  C   UNL     1      13.149  -9.107  -3.956 -0.15 -0.00    +0.000 C 
DOCKED: ATOM     18  C   UNL     1      13.576  -7.736  -3.414 -0.12 -0.00    +0.000 C 
DOCKED: ENDBRANCH  13  17
DOCKED: ENDBRANCH  12  13
DOCKED: ENDBRANCH   7  12
DOCKED: ENDBRANCH   1   2
DOCKED: BRANCH   1  19
DOCKED: ATOM     19  O   UNL     1      20.033 -11.485   3.023 -1.45 -0.00    +0.000 OA
DOCKED: BRANCH  19  21
DOCKED: ATOM     20  O   UNL     1      20.281 -12.634   1.038 -1.10 -0.00    +0.000 OA
DOCKED: ATOM     21  C   UNL     1      20.192 -11.525   1.635 -0.76 -0.00    +0.000 C 
DOCKED: ATOM     22  N   UNL     1      20.298 -10.293   0.910 -0.58 -0.00    +0.000 N 
DOCKED: ATOM     23  H   UNL     1      20.343  -9.456   1.428 -0.38 -0.00    +0.000 HD
DOCKED: BRANCH  22  24
DOCKED: ATOM     24  C   UNL     1      20.344 -10.196  -0.524 -0.54 -0.00    +0.000 A 
DOCKED: ATOM     25  C   UNL     1      19.388 -10.878  -1.290 -0.42 -0.00    +0.000 A 
DOCKED: ATOM     26  C   UNL     1      19.423 -10.824  -2.685 -0.39 -0.00    +0.000 A 
DOCKED: ATOM     27  C   UNL     1      20.434 -10.100  -3.346 -0.42 -0.00    +0.000 A 
DOCKED: ATOM     28  C   UNL     1      21.396  -9.422  -2.575 -0.46 -0.00    +0.000 A 
DOCKED: ATOM     29  C   UNL     1      21.358  -9.478  -1.179 -0.55 -0.00    +0.000 A 
DOCKED: BRANCH  27  30
DOCKED: ATOM     30  C   UNL     1      20.491 -10.032  -4.828 -0.37 -0.00    +0.000 C 
DOCKED: ATOM     31  N   UNL     1      20.134 -11.155  -5.641 -0.40 -0.00    +0.000 N 
DOCKED: ATOM     32  O   UNL     1      20.096 -11.034  -6.988 -0.33 -0.00    +0.000 OA
DOCKED: ATOM     33  O   UNL     1      20.874  -8.968  -5.386 -0.24 -0.00    +0.000 OA
DOCKED: ATOM     34  H   UNL     1      19.917 -12.017  -5.219 -0.14 -0.00    +0.000 HD
DOCKED: ENDBRANCH  27  30
DOCKED: ENDBRANCH  22  24
DOCKED: ENDBRANCH  19  21
DOCKED: ENDBRANCH   1  19
DOCKED: TORSDOF 9
DOCKED: TER
DOCKED: ENDMDL
________________________________________________________________________________


	BEGINNING GENETIC ALGORITHM DOCKING 33 of 100
Run: 33 Seed: 1837210673 568944396 [ Run 33 of 100 GA/GALS ]
Beginning LAMARCKIAN GENETIC ALGORITHM (LGA), with a maximum of 2500000 energy evaluations.

Final-Value: -14.703


	FINAL GENETIC ALGORITHM DOCKED STATE
	_______________________________________________


Detailed state:  trans 19.522 -9.451 1.038 quatxyzw 0.811443 0.122762 -0.011761 0.571272 center 1.619 0.086 0.013 ntor 9 6.4553 170.5669 -96.1189 -122.3734 -42.7009 -62.3391 -123.4885 102.7503 -12.9453
State:	 19.522  -9.451   1.038   0.989  0.150 -0.014 110.322      6.46  170.57  -96.12 -122.37  -42.70  -62.34 -123.49  102.75  -12.95

DOCKED: MODEL       33
DOCKED: USER    Run = 33
DOCKED: USER    DPF = ligand_dock.biased.dpf
DOCKED: USER  
DOCKED: USER    Estimated Free Energy of Binding    =  -10.31 kcal/mol  [=(1)+(2)+(3)-(4)]
DOCKED: USER    Estimated Inhibition Constant, Ki   =   27.58 nM (nanomolar)  [Temperature = 298.15 K]
DOCKED: USER    
DOCKED: USER    (1) Final Intermolecular Energy     =  -13.00 kcal/mol
DOCKED: USER        vdW + Hbond + desolv Energy     =  -13.00 kcal/mol
DOCKED: USER        Electrostatic Energy            =   +0.00 kcal/mol
DOCKED: USER    (2) Final Total Internal Energy     =   -1.71 kcal/mol
DOCKED: USER    (3) Torsional Free Energy           =   +2.68 kcal/mol
DOCKED: USER    (4) Unbound System's Energy  [=(2)] =   -1.71 kcal/mol
DOCKED: USER    
DOCKED: USER    
DOCKED: USER    NEWDPF move ligand.pdbqt
DOCKED: USER    NEWDPF about 1.619000 0.086000 0.013000
DOCKED: USER    NEWDPF tran0 19.521666 -9.451104 1.038083
DOCKED: USER    NEWDPF quaternion0 0.811443 0.122762 -0.011761 0.571272
DOCKED: USER    NEWDPF axisangle0 0.988647 0.149571 -0.014329 110.322015
DOCKED: USER    NEWDPF quat0 0.988647 0.149571 -0.014329 110.322015
DOCKED: USER    NEWDPF dihe0 6.46 170.57 -96.12 -122.37 -42.70 -62.34 -123.49 102.75 -12.95 
DOCKED: USER  keepresnum = 1 
DOCKED: USER  
DOCKED: REMARK  Name = 
DOCKED: REMARK  11 active torsions:
DOCKED: REMARK  status: ('A' for Active; 'I' for Inactive)
DOCKED: REMARK    1  A    between atoms: C_2  and  O_3
DOCKED: REMARK    2  A    between atoms: O_3  and  C_4
DOCKED: REMARK    3  A    between atoms: C_4  and  C_5
DOCKED: REMARK    4  A    between atoms: C_10  and  C_11
DOCKED: REMARK    5  A    between atoms: C_11  and  N_12
DOCKED: REMARK    6  A    between atoms: N_12  and  C_13
DOCKED: REMARK    7  A    between atoms: N_12  and  C_15
DOCKED: REMARK    8  A    between atoms: C_13  and  C_14
DOCKED: REMARK    9  A    between atoms: C_15  and  C_16
DOCKED: REMARK   10  A    between atoms: N_21  and  C_22
DOCKED: REMARK   11  A    between atoms: C_25  and  C_26
DOCKED: REMARK                            x       y       z     vdW  Elec       q    Type
DOCKED: REMARK                         _______ _______ _______ _____ _____    ______ ____
DOCKED: USER                              x       y       z     vdW  Elec       q    Type
DOCKED: USER                           _______ _______ _______ _____ _____    ______ ____
DOCKED: ROOT
DOCKED: ATOM      1  C   UNL     1      20.182 -11.440   2.199 -0.77 -0.00    +0.000 C 
DOCKED: ENDROOT
DOCKED: BRANCH   1   2
DOCKED: ATOM      2  C   UNL     1      18.726 -11.612   1.875 -0.52 -0.00    +0.000 A 
DOCKED: ATOM      3  C   UNL     1      18.325 -12.391   0.780 -0.48 -0.00    +0.000 A 
DOCKED: ATOM      4  C   UNL     1      16.968 -12.534   0.472 -0.46 +0.00    +0.000 A 
DOCKED: ATOM      5  C   UNL     1      15.996 -11.887   1.248 -0.41 +0.00    +0.000 A 
DOCKED: ATOM      6  C   UNL     1      14.633 -12.018   0.941 -0.43 +0.00    +0.000 A 
DOCKED: ATOM      7  C   UNL     1      13.664 -11.340   1.699 -0.37 +0.00    +0.000 A 
DOCKED: ATOM      8  C   UNL     1      14.067 -10.564   2.797 -0.34 +0.00    +0.000 A 
DOCKED: ATOM      9  C   UNL     1      15.423 -10.435   3.116 -0.41 +0.00    +0.000 A 
DOCKED: ATOM     10  C   UNL     1      16.395 -11.088   2.345 -0.40 +0.00    +0.000 A 
DOCKED: ATOM     11  C   UNL     1      17.757 -10.957   2.652 -0.44 +0.00    +0.000 A 
DOCKED: BRANCH   7  12
DOCKED: ATOM     12  C   UNL     1      12.201 -11.495   1.370 -0.43 +0.00    +0.000 C 
DOCKED: BRANCH  12  13
DOCKED: ATOM     13  N   UNL     1      11.746 -10.418   0.463 -0.24 +0.00    +0.000 N 
DOCKED: ATOM     14  H   UNL     1      11.652  -9.626   1.101 +0.00 +0.00    +0.000 HD
DOCKED: BRANCH  13  15
DOCKED: ATOM     15  C   UNL     1      12.759  -9.983  -0.522 -0.23 +0.00    +0.000 C 
DOCKED: ATOM     16  C   UNL     1      12.900 -10.927  -1.718 -0.23 -0.00    +0.000 C 
DOCKED: ENDBRANCH  13  15
DOCKED: BRANCH  13  17
DOCKED: ATOM     17  C   UNL     1      10.360 -10.524  -0.062 -0.24 +0.00    +0.000 C 
DOCKED: ATOM     18  C   UNL     1       9.505  -9.262   0.115 -0.12 +0.00    +0.000 C 
DOCKED: ENDBRANCH  13  17
DOCKED: ENDBRANCH  12  13
DOCKED: ENDBRANCH   7  12
DOCKED: ENDBRANCH   1   2
DOCKED: BRANCH   1  19
DOCKED: ATOM     19  O   UNL     1      20.656 -10.237   1.604 -0.70 -0.00    +0.000 OA
DOCKED: BRANCH  19  21
DOCKED: ATOM     20  O   UNL     1      22.149  -9.779  -0.094 -0.68 -0.00    +0.000 OA
DOCKED: ATOM     21  C   UNL     1      20.990 -10.143   0.250 -0.70 -0.00    +0.000 C 
DOCKED: ATOM     22  N   UNL     1      19.986 -10.419  -0.737 -0.49 -0.00    +0.000 N 
DOCKED: ATOM     23  H   UNL     1      19.067 -10.583  -0.424 -0.01 -0.00    +0.000 HD
DOCKED: BRANCH  22  24
DOCKED: ATOM     24  C   UNL     1      20.233 -10.475  -2.151 -0.45 -0.00    +0.000 A 
DOCKED: ATOM     25  C   UNL     1      19.415 -11.276  -2.962 -0.30 -0.00    +0.000 A 
DOCKED: ATOM     26  C   UNL     1      19.649 -11.369  -4.336 -0.43 -0.00    +0.000 A 
DOCKED: ATOM     27  C   UNL     1      20.723 -10.677  -4.926 -0.42 -0.00    +0.000 A 
DOCKED: ATOM     28  C   UNL     1      21.546  -9.880  -4.111 -0.38 -0.00    +0.000 A 
DOCKED: ATOM     29  C   UNL     1      21.310  -9.788  -2.736 -0.47 -0.00    +0.000 A 
DOCKED: BRANCH  27  30
DOCKED: ATOM     30  C   UNL     1      20.989 -10.766  -6.384 -0.37 -0.00    +0.000 C 
DOCKED: ATOM     31  N   UNL     1      22.217 -11.302  -6.888 -0.39 -0.00    +0.000 N 
DOCKED: ATOM     32  O   UNL     1      22.392 -11.466  -8.220 -0.37 -0.00    +0.000 OA
DOCKED: ATOM     33  O   UNL     1      20.122 -10.348  -7.200 -0.28 -0.00    +0.000 OA
DOCKED: ATOM     34  H   UNL     1      22.936 -11.551  -6.264 -0.04 -0.00    +0.000 HD
DOCKED: ENDBRANCH  27  30
DOCKED: ENDBRANCH  22  24
DOCKED: ENDBRANCH  19  21
DOCKED: ENDBRANCH   1  19
DOCKED: TORSDOF 9
DOCKED: TER
DOCKED: ENDMDL
________________________________________________________________________________


	BEGINNING GENETIC ALGORITHM DOCKING 34 of 100
Run: 34 Seed: 607425191 760353280 [ Run 34 of 100 GA/GALS ]
Beginning LAMARCKIAN GENETIC ALGORITHM (LGA), with a maximum of 2500000 energy evaluations.

Final-Value: -15.978


	FINAL GENETIC ALGORITHM DOCKED STATE
	_______________________________________________


Detailed state:  trans 19.388 -11.754 -5.268 quatxyzw -0.462078 -0.220726 0.048173 0.857580 center 1.619 0.086 0.013 ntor 9 179.9298 -125.7837 124.8371 -143.5671 149.1281 -116.3445 121.7447 153.3858 162.0877
State:	 19.388 -11.754  -5.268  -0.898 -0.429  0.094 61.908    179.93 -125.78  124.84 -143.57  149.13 -116.34  121.74  153.39  162.09

DOCKED: MODEL       34
DOCKED: USER    Run = 34
DOCKED: USER    DPF = ligand_dock.biased.dpf
DOCKED: USER  
DOCKED: USER    Estimated Free Energy of Binding    =  -11.07 kcal/mol  [=(1)+(2)+(3)-(4)]
DOCKED: USER    Estimated Inhibition Constant, Ki   =    7.73 nM (nanomolar)  [Temperature = 298.15 K]
DOCKED: USER    
DOCKED: USER    (1) Final Intermolecular Energy     =  -13.75 kcal/mol
DOCKED: USER        vdW + Hbond + desolv Energy     =  -13.75 kcal/mol
DOCKED: USER        Electrostatic Energy            =   +0.00 kcal/mol
DOCKED: USER    (2) Final Total Internal Energy     =   -2.23 kcal/mol
DOCKED: USER    (3) Torsional Free Energy           =   +2.68 kcal/mol
DOCKED: USER    (4) Unbound System's Energy  [=(2)] =   -2.23 kcal/mol
DOCKED: USER    
DOCKED: USER    
DOCKED: USER    NEWDPF move ligand.pdbqt
DOCKED: USER    NEWDPF about 1.619000 0.086000 0.013000
DOCKED: USER    NEWDPF tran0 19.388000 -11.753628 -5.267736
DOCKED: USER    NEWDPF quaternion0 -0.462078 -0.220726 0.048173 0.857580
DOCKED: USER    NEWDPF axisangle0 -0.898371 -0.429135 0.093657 61.908157
DOCKED: USER    NEWDPF quat0 -0.898371 -0.429135 0.093657 61.908157
DOCKED: USER    NEWDPF dihe0 179.93 -125.78 124.84 -143.57 149.13 -116.34 121.74 153.39 162.09 
DOCKED: USER  keepresnum = 1 
DOCKED: USER  
DOCKED: REMARK  Name = 
DOCKED: REMARK  11 active torsions:
DOCKED: REMARK  status: ('A' for Active; 'I' for Inactive)
DOCKED: REMARK    1  A    between atoms: C_2  and  O_3
DOCKED: REMARK    2  A    between atoms: O_3  and  C_4
DOCKED: REMARK    3  A    between atoms: C_4  and  C_5
DOCKED: REMARK    4  A    between atoms: C_10  and  C_11
DOCKED: REMARK    5  A    between atoms: C_11  and  N_12
DOCKED: REMARK    6  A    between atoms: N_12  and  C_13
DOCKED: REMARK    7  A    between atoms: N_12  and  C_15
DOCKED: REMARK    8  A    between atoms: C_13  and  C_14
DOCKED: REMARK    9  A    between atoms: C_15  and  C_16
DOCKED: REMARK   10  A    between atoms: N_21  and  C_22
DOCKED: REMARK   11  A    between atoms: C_25  and  C_26
DOCKED: REMARK                            x       y       z     vdW  Elec       q    Type
DOCKED: REMARK                         _______ _______ _______ _____ _____    ______ ____
DOCKED: USER                              x       y       z     vdW  Elec       q    Type
DOCKED: USER                           _______ _______ _______ _____ _____    ______ ____
DOCKED: ROOT
DOCKED: ATOM      1  C   UNL     1      18.832  -9.986  -6.786 -0.24 -0.00    +0.000 C 
DOCKED: ENDROOT
DOCKED: BRANCH   1   2
DOCKED: ATOM      2  C   UNL     1      17.582 -10.269  -6.003 -0.23 -0.00    +0.000 A 
DOCKED: ATOM      3  C   UNL     1      16.707 -11.291  -6.399 -0.30 -0.00    +0.000 A 
DOCKED: ATOM      4  C   UNL     1      15.536 -11.539  -5.677 -0.24 -0.00    +0.000 A 
DOCKED: ATOM      5  C   UNL     1      15.217 -10.757  -4.558 -0.23 -0.00    +0.000 A 
DOCKED: ATOM      6  C   UNL     1      14.039 -10.993  -3.833 -0.25 -0.00    +0.000 A 
DOCKED: ATOM      7  C   UNL     1      13.706 -10.185  -2.733 -0.23 -0.00    +0.000 A 
DOCKED: ATOM      8  C   UNL     1      14.585  -9.164  -2.336 -0.20 -0.00    +0.000 A 
DOCKED: ATOM      9  C   UNL     1      15.765  -8.928  -3.048 -0.14 -0.00    +0.000 A 
DOCKED: ATOM     10  C   UNL     1      16.088  -9.715  -4.162 -0.20 -0.00    +0.000 A 
DOCKED: ATOM     11  C   UNL     1      17.266  -9.479  -4.887 -0.19 -0.00    +0.000 A 
DOCKED: BRANCH   7  12
DOCKED: ATOM     12  C   UNL     1      12.444 -10.452  -1.953 -0.22 -0.00    +0.000 C 
DOCKED: BRANCH  12  13
DOCKED: ATOM     13  N   UNL     1      12.732 -11.238  -0.733 -0.32 +0.00    +0.000 N 
DOCKED: ATOM     14  H   UNL     1      12.494 -12.186  -1.028 +0.01 +0.00    +0.000 HD
DOCKED: BRANCH  13  15
DOCKED: ATOM     15  C   UNL     1      14.165 -11.308  -0.377 -0.37 +0.00    +0.000 C 
DOCKED: ATOM     16  C   UNL     1      14.795 -12.680  -0.627 -0.50 +0.00    +0.000 C 
DOCKED: ENDBRANCH  13  15
DOCKED: BRANCH  13  17
DOCKED: ATOM     17  C   UNL     1      11.805 -11.059   0.414 -0.36 +0.00    +0.000 C 
DOCKED: ATOM     18  C   UNL     1      12.302 -11.646   1.743 -0.39 +0.00    +0.000 C 
DOCKED: ENDBRANCH  13  17
DOCKED: ENDBRANCH  12  13
DOCKED: ENDBRANCH   7  12
DOCKED: ENDBRANCH   1   2
DOCKED: BRANCH   1  19
DOCKED: ATOM     19  O   UNL     1      19.899 -10.772  -6.267 -0.35 -0.00    +0.000 OA
DOCKED: BRANCH  19  21
DOCKED: ATOM     20  O   UNL     1      20.036 -12.406  -4.644 -0.72 -0.00    +0.000 OA
DOCKED: ATOM     21  C   UNL     1      19.959 -11.180  -4.931 -0.49 -0.00    +0.000 C 
DOCKED: ATOM     22  N   UNL     1      19.883 -10.189  -3.897 -0.34 -0.00    +0.000 N 
DOCKED: ATOM     23  H   UNL     1      19.705  -9.258  -4.164 +0.00 -0.00    +0.000 HD
DOCKED: BRANCH  22  24
DOCKED: ATOM     24  C   UNL     1      20.053 -10.464  -2.496 -0.43 -0.00    +0.000 A 
DOCKED: ATOM     25  C   UNL     1      21.295 -10.220  -1.892 -0.53 -0.00    +0.000 A 
DOCKED: ATOM     26  C   UNL     1      21.495 -10.503  -0.539 -0.62 -0.00    +0.000 A 
DOCKED: ATOM     27  C   UNL     1      20.460 -11.059   0.235 -0.58 -0.00    +0.000 A 
DOCKED: ATOM     28  C   UNL     1      19.217 -11.310  -0.374 -0.46 -0.00    +0.000 A 
DOCKED: ATOM     29  C   UNL     1      19.019 -11.025  -1.728 -0.37 -0.00    +0.000 A 
DOCKED: BRANCH  27  30
DOCKED: ATOM     30  C   UNL     1      20.654 -11.369   1.674 -0.74 -0.00    +0.000 C 
DOCKED: ATOM     31  N   UNL     1      20.129 -10.518   2.699 -0.65 -0.00    +0.000 N 
DOCKED: ATOM     32  O   UNL     1      20.231 -10.878   3.999 -1.11 -0.00    +0.000 OA
DOCKED: ATOM     33  O   UNL     1      21.307 -12.397   2.006 -1.35 -0.00    +0.000 OA
DOCKED: ATOM     34  H   UNL     1      19.694  -9.670   2.457 -0.43 -0.00    +0.000 HD
DOCKED: ENDBRANCH  27  30
DOCKED: ENDBRANCH  22  24
DOCKED: ENDBRANCH  19  21
DOCKED: ENDBRANCH   1  19
DOCKED: TORSDOF 9
DOCKED: TER
DOCKED: ENDMDL
________________________________________________________________________________


	BEGINNING GENETIC ALGORITHM DOCKING 35 of 100
Run: 35 Seed: 227553926 63398825 [ Run 35 of 100 GA/GALS ]
Beginning LAMARCKIAN GENETIC ALGORITHM (LGA), with a maximum of 2500000 energy evaluations.

Final-Value: -16.056


	FINAL GENETIC ALGORITHM DOCKED STATE
	_______________________________________________


Detailed state:  trans 19.909 -11.482 1.382 quatxyzw -0.958007 0.124361 -0.257528 -0.020897 center 1.619 0.086 0.013 ntor 9 -89.6652 -68.3623 -41.5574 113.6017 139.7407 -179.4092 -97.3884 -171.9144 124.2421
State:	 19.909 -11.482   1.382  -0.958  0.124 -0.258 -177.605    -89.67  -68.36  -41.56  113.60  139.74 -179.41  -97.39 -171.91  124.24

DOCKED: MODEL       35
DOCKED: USER    Run = 35
DOCKED: USER    DPF = ligand_dock.biased.dpf
DOCKED: USER  
DOCKED: USER    Estimated Free Energy of Binding    =  -11.19 kcal/mol  [=(1)+(2)+(3)-(4)]
DOCKED: USER    Estimated Inhibition Constant, Ki   =    6.26 nM (nanomolar)  [Temperature = 298.15 K]
DOCKED: USER    
DOCKED: USER    (1) Final Intermolecular Energy     =  -13.88 kcal/mol
DOCKED: USER        vdW + Hbond + desolv Energy     =  -13.88 kcal/mol
DOCKED: USER        Electrostatic Energy            =   +0.00 kcal/mol
DOCKED: USER    (2) Final Total Internal Energy     =   -2.18 kcal/mol
DOCKED: USER    (3) Torsional Free Energy           =   +2.68 kcal/mol
DOCKED: USER    (4) Unbound System's Energy  [=(2)] =   -2.18 kcal/mol
DOCKED: USER    
DOCKED: USER    
DOCKED: USER    NEWDPF move ligand.pdbqt
DOCKED: USER    NEWDPF about 1.619000 0.086000 0.013000
DOCKED: USER    NEWDPF tran0 19.908512 -11.481592 1.381837
DOCKED: USER    NEWDPF quaternion0 -0.958007 0.124361 -0.257528 -0.020897
DOCKED: USER    NEWDPF axisangle0 -0.958216 0.124388 -0.257584 -177.605163
DOCKED: USER    NEWDPF quat0 -0.958216 0.124388 -0.257584 -177.605163
DOCKED: USER    NEWDPF dihe0 -89.67 -68.36 -41.56 113.60 139.74 -179.41 -97.39 -171.91 124.24 
DOCKED: USER  keepresnum = 1 
DOCKED: USER  
DOCKED: REMARK  Name = 
DOCKED: REMARK  11 active torsions:
DOCKED: REMARK  status: ('A' for Active; 'I' for Inactive)
DOCKED: REMARK    1  A    between atoms: C_2  and  O_3
DOCKED: REMARK    2  A    between atoms: O_3  and  C_4
DOCKED: REMARK    3  A    between atoms: C_4  and  C_5
DOCKED: REMARK    4  A    between atoms: C_10  and  C_11
DOCKED: REMARK    5  A    between atoms: C_11  and  N_12
DOCKED: REMARK    6  A    between atoms: N_12  and  C_13
DOCKED: REMARK    7  A    between atoms: N_12  and  C_15
DOCKED: REMARK    8  A    between atoms: C_13  and  C_14
DOCKED: REMARK    9  A    between atoms: C_15  and  C_16
DOCKED: REMARK   10  A    between atoms: N_21  and  C_22
DOCKED: REMARK   11  A    between atoms: C_25  and  C_26
DOCKED: REMARK                            x       y       z     vdW  Elec       q    Type
DOCKED: REMARK                         _______ _______ _______ _____ _____    ______ ____
DOCKED: USER                              x       y       z     vdW  Elec       q    Type
DOCKED: USER                           _______ _______ _______ _____ _____    ______ ____
DOCKED: ROOT
DOCKED: ATOM      1  C   UNL     1      19.112 -11.199   3.623 -0.50 -0.00    +0.000 C 
DOCKED: ENDROOT
DOCKED: BRANCH   1   2
DOCKED: ATOM      2  C   UNL     1      17.941 -10.915   2.728 -0.46 +0.00    +0.000 A 
DOCKED: ATOM      3  C   UNL     1      17.272  -9.684   2.795 -0.37 +0.00    +0.000 A 
DOCKED: ATOM      4  C   UNL     1      16.170  -9.431   1.971 -0.28 +0.00    +0.000 A 
DOCKED: ATOM      5  C   UNL     1      15.715 -10.413   1.080 -0.29 +0.00    +0.000 A 
DOCKED: ATOM      6  C   UNL     1      14.604 -10.171   0.257 -0.23 +0.00    +0.000 A 
DOCKED: ATOM      7  C   UNL     1      14.130 -11.169  -0.609 -0.31 +0.00    +0.000 A 
DOCKED: ATOM      8  C   UNL     1      14.802 -12.400  -0.677 -0.44 +0.00    +0.000 A 
DOCKED: ATOM      9  C   UNL     1      15.914 -12.647   0.134 -0.48 +0.00    +0.000 A 
DOCKED: ATOM     10  C   UNL     1      16.376 -11.662   1.019 -0.40 +0.00    +0.000 A 
DOCKED: ATOM     11  C   UNL     1      17.485 -11.904   1.842 -0.15 +0.00    +0.000 A 
DOCKED: BRANCH   7  12
DOCKED: ATOM     12  C   UNL     1      12.943 -10.898  -1.499 -0.28 -0.00    +0.000 C 
DOCKED: BRANCH  12  13
DOCKED: ATOM     13  N   UNL     1      13.371 -10.318  -2.790 -0.24 -0.00    +0.000 N 
DOCKED: ATOM     14  H   UNL     1      12.574 -10.527  -3.393 -0.02 -0.00    +0.000 HD
DOCKED: BRANCH  13  15
DOCKED: ATOM     15  C   UNL     1      13.462  -8.842  -2.794 -0.17 -0.00    +0.000 C 
DOCKED: ATOM     16  C   UNL     1      12.711  -8.176  -1.639 -0.13 -0.00    +0.000 C 
DOCKED: ENDBRANCH  13  15
DOCKED: BRANCH  13  17
DOCKED: ATOM     17  C   UNL     1      14.463 -11.019  -3.512 -0.31 -0.00    +0.000 C 
DOCKED: ATOM     18  C   UNL     1      15.800 -10.265  -3.549 -0.25 -0.00    +0.000 C 
DOCKED: ENDBRANCH  13  17
DOCKED: ENDBRANCH  12  13
DOCKED: ENDBRANCH   7  12
DOCKED: ENDBRANCH   1   2
DOCKED: BRANCH   1  19
DOCKED: ATOM     19  O   UNL     1      20.211 -11.640   2.833 -1.69 -0.00    +0.000 OA
DOCKED: BRANCH  19  21
DOCKED: ATOM     20  O   UNL     1      19.888 -12.710   0.815 -0.96 -0.00    +0.000 OA
DOCKED: ATOM     21  C   UNL     1      20.182 -11.651   1.436 -0.76 -0.00    +0.000 C 
DOCKED: ATOM     22  N   UNL     1      20.537 -10.458   0.723 -0.61 -0.00    +0.000 N 
DOCKED: ATOM     23  H   UNL     1      20.874  -9.694   1.244 -0.38 -0.00    +0.000 HD
DOCKED: BRANCH  22  24
DOCKED: ATOM     24  C   UNL     1      20.432 -10.304  -0.702 -0.55 -0.00    +0.000 A 
DOCKED: ATOM     25  C   UNL     1      19.371 -10.917  -1.385 -0.41 -0.00    +0.000 A 
DOCKED: ATOM     26  C   UNL     1      19.260 -10.805  -2.773 -0.37 -0.00    +0.000 A 
DOCKED: ATOM     27  C   UNL     1      20.223 -10.094  -3.512 -0.39 -0.00    +0.000 A 
DOCKED: ATOM     28  C   UNL     1      21.290  -9.486  -2.826 -0.45 -0.00    +0.000 A 
DOCKED: ATOM     29  C   UNL     1      21.399  -9.598  -1.437 -0.53 -0.00    +0.000 A 
DOCKED: BRANCH  27  30
DOCKED: ATOM     30  C   UNL     1      20.124  -9.966  -4.988 -0.33 -0.00    +0.000 C 
DOCKED: ATOM     31  N   UNL     1      20.208 -11.111  -5.844 -0.38 -0.00    +0.000 N 
DOCKED: ATOM     32  O   UNL     1      20.011 -10.979  -7.176 -0.33 -0.00    +0.000 OA
DOCKED: ATOM     33  O   UNL     1      19.976  -8.824  -5.504 -0.18 -0.00    +0.000 OA
DOCKED: ATOM     34  H   UNL     1      20.410 -11.995  -5.462 -0.26 -0.00    +0.000 HD
DOCKED: ENDBRANCH  27  30
DOCKED: ENDBRANCH  22  24
DOCKED: ENDBRANCH  19  21
DOCKED: ENDBRANCH   1  19
DOCKED: TORSDOF 9
DOCKED: TER
DOCKED: ENDMDL
________________________________________________________________________________


	BEGINNING GENETIC ALGORITHM DOCKING 36 of 100
Run: 36 Seed: 474209815 1966599481 [ Run 36 of 100 GA/GALS ]
Beginning LAMARCKIAN GENETIC ALGORITHM (LGA), with a maximum of 2500000 energy evaluations.

Final-Value: -16.101


	FINAL GENETIC ALGORITHM DOCKED STATE
	_______________________________________________


Detailed state:  trans 20.960 -10.097 -4.730 quatxyzw 0.192172 0.176620 0.104700 -0.959642 center 1.619 0.086 0.013 ntor 9 149.1180 -47.1730 63.3921 168.3809 148.3898 -128.4964 98.2096 -161.8702 147.9885
State:	 20.960 -10.097  -4.730   0.683  0.628  0.372 -32.666    149.12  -47.17   63.39  168.38  148.39 -128.50   98.21 -161.87  147.99

DOCKED: MODEL       36
DOCKED: USER    Run = 36
DOCKED: USER    DPF = ligand_dock.biased.dpf
DOCKED: USER  
DOCKED: USER    Estimated Free Energy of Binding    =  -10.83 kcal/mol  [=(1)+(2)+(3)-(4)]
DOCKED: USER    Estimated Inhibition Constant, Ki   =   11.58 nM (nanomolar)  [Temperature = 298.15 K]
DOCKED: USER    
DOCKED: USER    (1) Final Intermolecular Energy     =  -13.51 kcal/mol
DOCKED: USER        vdW + Hbond + desolv Energy     =  -13.51 kcal/mol
DOCKED: USER        Electrostatic Energy            =   +0.00 kcal/mol
DOCKED: USER    (2) Final Total Internal Energy     =   -2.59 kcal/mol
DOCKED: USER    (3) Torsional Free Energy           =   +2.68 kcal/mol
DOCKED: USER    (4) Unbound System's Energy  [=(2)] =   -2.59 kcal/mol
DOCKED: USER    
DOCKED: USER    
DOCKED: USER    NEWDPF move ligand.pdbqt
DOCKED: USER    NEWDPF about 1.619000 0.086000 0.013000
DOCKED: USER    NEWDPF tran0 20.959774 -10.096602 -4.730403
DOCKED: USER    NEWDPF quaternion0 0.192172 0.176620 0.104700 -0.959642
DOCKED: USER    NEWDPF axisangle0 0.683341 0.628042 0.372302 -32.666493
DOCKED: USER    NEWDPF quat0 0.683341 0.628042 0.372302 -32.666493
DOCKED: USER    NEWDPF dihe0 149.12 -47.17 63.39 168.38 148.39 -128.50 98.21 -161.87 147.99 
DOCKED: USER  keepresnum = 1 
DOCKED: USER  
DOCKED: REMARK  Name = 
DOCKED: REMARK  11 active torsions:
DOCKED: REMARK  status: ('A' for Active; 'I' for Inactive)
DOCKED: REMARK    1  A    between atoms: C_2  and  O_3
DOCKED: REMARK    2  A    between atoms: O_3  and  C_4
DOCKED: REMARK    3  A    between atoms: C_4  and  C_5
DOCKED: REMARK    4  A    between atoms: C_10  and  C_11
DOCKED: REMARK    5  A    between atoms: C_11  and  N_12
DOCKED: REMARK    6  A    between atoms: N_12  and  C_13
DOCKED: REMARK    7  A    between atoms: N_12  and  C_15
DOCKED: REMARK    8  A    between atoms: C_13  and  C_14
DOCKED: REMARK    9  A    between atoms: C_15  and  C_16
DOCKED: REMARK   10  A    between atoms: N_21  and  C_22
DOCKED: REMARK   11  A    between atoms: C_25  and  C_26
DOCKED: REMARK                            x       y       z     vdW  Elec       q    Type
DOCKED: REMARK                         _______ _______ _______ _____ _____    ______ ____
DOCKED: USER                              x       y       z     vdW  Elec       q    Type
DOCKED: USER                           _______ _______ _______ _____ _____    ______ ____
DOCKED: ROOT
DOCKED: ATOM      1  C   UNL     1      20.441  -9.517  -6.996 -0.20 -0.00    +0.000 C 
DOCKED: ENDROOT
DOCKED: BRANCH   1   2
DOCKED: ATOM      2  C   UNL     1      19.138  -9.901  -6.357 -0.21 -0.00    +0.000 A 
DOCKED: ATOM      3  C   UNL     1      18.600 -11.183  -6.546 -0.33 -0.00    +0.000 A 
DOCKED: ATOM      4  C   UNL     1      17.377 -11.531  -5.964 -0.22 -0.00    +0.000 A 
DOCKED: ATOM      5  C   UNL     1      16.669 -10.595  -5.197 -0.22 -0.00    +0.000 A 
DOCKED: ATOM      6  C   UNL     1      15.436 -10.932  -4.617 -0.21 -0.00    +0.000 A 
DOCKED: ATOM      7  C   UNL     1      14.713  -9.981  -3.879 -0.20 -0.00    +0.000 A 
DOCKED: ATOM      8  C   UNL     1      15.254  -8.699  -3.688 -0.16 -0.00    +0.000 A 
DOCKED: ATOM      9  C   UNL     1      16.486  -8.357  -4.256 -0.13 -0.00    +0.000 A 
DOCKED: ATOM     10  C   UNL     1      17.198  -9.295  -5.015 -0.17 -0.00    +0.000 A 
DOCKED: ATOM     11  C   UNL     1      18.430  -8.958  -5.596 -0.15 -0.00    +0.000 A 
DOCKED: BRANCH   7  12
DOCKED: ATOM     12  C   UNL     1      13.395 -10.354  -3.249 -0.24 -0.00    +0.000 C 
DOCKED: BRANCH  12  13
DOCKED: ATOM     13  N   UNL     1      13.570 -10.708  -1.823 -0.28 -0.00    +0.000 N 
DOCKED: ATOM     14  H   UNL     1      12.861 -11.430  -1.693 -0.03 -0.00    +0.000 HD
DOCKED: BRANCH  13  15
DOCKED: ATOM     15  C   UNL     1      14.849 -11.385  -1.517 -0.36 +0.00    +0.000 C 
DOCKED: ATOM     16  C   UNL     1      14.710 -12.546  -0.530 -0.50 +0.00    +0.000 C 
DOCKED: ENDBRANCH  13  15
DOCKED: BRANCH  13  17
DOCKED: ATOM     17  C   UNL     1      13.135  -9.700  -0.823 -0.21 -0.00    +0.000 C 
DOCKED: ATOM     18  C   UNL     1      14.209  -8.677  -0.428 -0.24 -0.00    +0.000 C 
DOCKED: ENDBRANCH  13  17
DOCKED: ENDBRANCH  12  13
DOCKED: ENDBRANCH   7  12
DOCKED: ENDBRANCH   1   2
DOCKED: BRANCH   1  19
DOCKED: ATOM     19  O   UNL     1      21.467  -9.521  -6.009 -0.28 -0.00    +0.000 OA
DOCKED: BRANCH  19  21
DOCKED: ATOM     20  O   UNL     1      21.805 -11.292  -4.570 -0.59 -0.00    +0.000 OA
DOCKED: ATOM     21  C   UNL     1      21.319 -10.144  -4.766 -0.44 -0.00    +0.000 C 
DOCKED: ATOM     22  N   UNL     1      20.569  -9.481  -3.740 -0.35 -0.00    +0.000 N 
DOCKED: ATOM     23  H   UNL     1      20.108  -8.643  -3.975 -0.00 -0.00    +0.000 HD
DOCKED: BRANCH  22  24
DOCKED: ATOM     24  C   UNL     1      20.446  -9.957  -2.389 -0.46 -0.00    +0.000 A 
DOCKED: ATOM     25  C   UNL     1      21.423  -9.610  -1.445 -0.51 -0.00    +0.000 A 
DOCKED: ATOM     26  C   UNL     1      21.342 -10.080  -0.132 -0.63 -0.00    +0.000 A 
DOCKED: ATOM     27  C   UNL     1      20.291 -10.929   0.259 -0.59 -0.00    +0.000 A 
DOCKED: ATOM     28  C   UNL     1      19.315 -11.282  -0.692 -0.43 -0.00    +0.000 A 
DOCKED: ATOM     29  C   UNL     1      19.398 -10.809  -2.005 -0.39 -0.00    +0.000 A 
DOCKED: BRANCH  27  30
DOCKED: ATOM     30  C   UNL     1      20.189 -11.441   1.649 -0.76 -0.00    +0.000 C 
DOCKED: ATOM     31  N   UNL     1      20.465 -10.603   2.776 -0.65 -0.00    +0.000 N 
DOCKED: ATOM     32  O   UNL     1      20.265 -11.064   4.032 -1.14 -0.00    +0.000 OA
DOCKED: ATOM     33  O   UNL     1      19.866 -12.645   1.845 -1.66 -0.00    +0.000 OA
DOCKED: ATOM     34  H   UNL     1      20.801  -9.689   2.636 -0.57 -0.00    +0.000 HD
DOCKED: ENDBRANCH  27  30
DOCKED: ENDBRANCH  22  24
DOCKED: ENDBRANCH  19  21
DOCKED: ENDBRANCH   1  19
DOCKED: TORSDOF 9
DOCKED: TER
DOCKED: ENDMDL
________________________________________________________________________________


	BEGINNING GENETIC ALGORITHM DOCKING 37 of 100
Run: 37 Seed: 1691596004 1576858640 [ Run 37 of 100 GA/GALS ]
Beginning LAMARCKIAN GENETIC ALGORITHM (LGA), with a maximum of 2500000 energy evaluations.

Final-Value: -16.425


	FINAL GENETIC ALGORITHM DOCKED STATE
	_______________________________________________


Detailed state:  trans 19.875 -11.378 -5.105 quatxyzw 0.334853 0.222150 0.001234 -0.915708 center 1.619 0.086 0.013 ntor 9 42.3118 153.0087 74.1038 -2.1175 -180.0000 -114.6276 100.7569 173.7663 144.3792
State:	 19.875 -11.378  -5.105   0.833  0.553  0.003 -47.387     42.31  153.01   74.10   -2.12 -180.00 -114.63  100.76  173.77  144.38

DOCKED: MODEL       37
DOCKED: USER    Run = 37
DOCKED: USER    DPF = ligand_dock.biased.dpf
DOCKED: USER  
DOCKED: USER    Estimated Free Energy of Binding    =  -11.38 kcal/mol  [=(1)+(2)+(3)-(4)]
DOCKED: USER    Estimated Inhibition Constant, Ki   =    4.55 nM (nanomolar)  [Temperature = 298.15 K]
DOCKED: USER    
DOCKED: USER    (1) Final Intermolecular Energy     =  -14.06 kcal/mol
DOCKED: USER        vdW + Hbond + desolv Energy     =  -14.06 kcal/mol
DOCKED: USER        Electrostatic Energy            =   +0.00 kcal/mol
DOCKED: USER    (2) Final Total Internal Energy     =   -2.36 kcal/mol
DOCKED: USER    (3) Torsional Free Energy           =   +2.68 kcal/mol
DOCKED: USER    (4) Unbound System's Energy  [=(2)] =   -2.36 kcal/mol
DOCKED: USER    
DOCKED: USER    
DOCKED: USER    NEWDPF move ligand.pdbqt
DOCKED: USER    NEWDPF about 1.619000 0.086000 0.013000
DOCKED: USER    NEWDPF tran0 19.874982 -11.378441 -5.104574
DOCKED: USER    NEWDPF quaternion0 0.334853 0.222150 0.001234 -0.915708
DOCKED: USER    NEWDPF axisangle0 0.833291 0.552826 0.003072 -47.386997
DOCKED: USER    NEWDPF quat0 0.833291 0.552826 0.003072 -47.386997
DOCKED: USER    NEWDPF dihe0 42.31 153.01 74.10 -2.12 -180.00 -114.63 100.76 173.77 144.38 
DOCKED: USER  keepresnum = 1 
DOCKED: USER  
DOCKED: REMARK  Name = 
DOCKED: REMARK  11 active torsions:
DOCKED: REMARK  status: ('A' for Active; 'I' for Inactive)
DOCKED: REMARK    1  A    between atoms: C_2  and  O_3
DOCKED: REMARK    2  A    between atoms: O_3  and  C_4
DOCKED: REMARK    3  A    between atoms: C_4  and  C_5
DOCKED: REMARK    4  A    between atoms: C_10  and  C_11
DOCKED: REMARK    5  A    between atoms: C_11  and  N_12
DOCKED: REMARK    6  A    between atoms: N_12  and  C_13
DOCKED: REMARK    7  A    between atoms: N_12  and  C_15
DOCKED: REMARK    8  A    between atoms: C_13  and  C_14
DOCKED: REMARK    9  A    between atoms: C_15  and  C_16
DOCKED: REMARK   10  A    between atoms: N_21  and  C_22
DOCKED: REMARK   11  A    between atoms: C_25  and  C_26
DOCKED: REMARK                            x       y       z     vdW  Elec       q    Type
DOCKED: REMARK                         _______ _______ _______ _____ _____    ______ ____
DOCKED: USER                              x       y       z     vdW  Elec       q    Type
DOCKED: USER                           _______ _______ _______ _____ _____    ______ ____
DOCKED: ROOT
DOCKED: ATOM      1  C   UNL     1      19.193 -10.140  -7.038 -0.26 -0.00    +0.000 C 
DOCKED: ENDROOT
DOCKED: BRANCH   1   2
DOCKED: ATOM      2  C   UNL     1      17.940 -10.412  -6.257 -0.26 -0.00    +0.000 A 
DOCKED: ATOM      3  C   UNL     1      17.052 -11.420  -6.659 -0.32 -0.00    +0.000 A 
DOCKED: ATOM      4  C   UNL     1      15.878 -11.658  -5.939 -0.23 -0.00    +0.000 A 
DOCKED: ATOM      5  C   UNL     1      15.570 -10.880  -4.814 -0.22 -0.00    +0.000 A 
DOCKED: ATOM      6  C   UNL     1      14.388 -11.105  -4.090 -0.26 -0.00    +0.000 A 
DOCKED: ATOM      7  C   UNL     1      14.066 -10.301  -2.985 -0.24 -0.00    +0.000 A 
DOCKED: ATOM      8  C   UNL     1      14.958  -9.294  -2.582 -0.20 -0.00    +0.000 A 
DOCKED: ATOM      9  C   UNL     1      16.141  -9.067  -3.292 -0.15 -0.00    +0.000 A 
DOCKED: ATOM     10  C   UNL     1      16.454  -9.851  -4.412 -0.20 -0.00    +0.000 A 
DOCKED: ATOM     11  C   UNL     1      17.634  -9.625  -5.135 -0.19 -0.00    +0.000 A 
DOCKED: BRANCH   7  12
DOCKED: ATOM     12  C   UNL     1      12.801 -10.556  -2.206 -0.22 -0.00    +0.000 C 
DOCKED: BRANCH  12  13
DOCKED: ATOM     13  N   UNL     1      13.082 -10.658  -0.757 -0.27 +0.00    +0.000 N 
DOCKED: ATOM     14  H   UNL     1      13.737  -9.888  -0.612 +0.00 +0.00    +0.000 HD
DOCKED: BRANCH  13  15
DOCKED: ATOM     15  C   UNL     1      11.930 -10.334   0.111 -0.26 +0.00    +0.000 C 
DOCKED: ATOM     16  C   UNL     1      11.419 -11.525   0.926 -0.42 +0.00    +0.000 C 
DOCKED: ENDBRANCH  13  15
DOCKED: BRANCH  13  17
DOCKED: ATOM     17  C   UNL     1      13.902 -11.814  -0.312 -0.42 +0.00    +0.000 C 
DOCKED: ATOM     18  C   UNL     1      15.302 -11.452   0.203 -0.40 +0.00    +0.000 C 
DOCKED: ENDBRANCH  13  17
DOCKED: ENDBRANCH  12  13
DOCKED: ENDBRANCH   7  12
DOCKED: ENDBRANCH   1   2
DOCKED: BRANCH   1  19
DOCKED: ATOM     19  O   UNL     1      20.318 -10.603  -6.298 -0.33 -0.00    +0.000 OA
DOCKED: BRANCH  19  21
DOCKED: ATOM     20  O   UNL     1      20.219 -12.289  -4.728 -0.72 -0.00    +0.000 OA
DOCKED: ATOM     21  C   UNL     1      20.222 -11.052  -4.978 -0.48 -0.00    +0.000 C 
DOCKED: ATOM     22  N   UNL     1      20.080 -10.091  -3.924 -0.34 -0.00    +0.000 N 
DOCKED: ATOM     23  H   UNL     1      19.968  -9.145  -4.175 +0.00 -0.00    +0.000 HD
DOCKED: BRANCH  22  24
DOCKED: ATOM     24  C   UNL     1      20.093 -10.416  -2.523 -0.43 -0.00    +0.000 A 
DOCKED: ATOM     25  C   UNL     1      21.264 -10.210  -1.780 -0.54 -0.00    +0.000 A 
DOCKED: ATOM     26  C   UNL     1      21.313 -10.541  -0.423 -0.62 -0.00    +0.000 A 
DOCKED: ATOM     27  C   UNL     1      20.193 -11.107   0.214 -0.57 -0.00    +0.000 A 
DOCKED: ATOM     28  C   UNL     1      19.022 -11.319  -0.536 -0.44 -0.00    +0.000 A 
DOCKED: ATOM     29  C   UNL     1      18.975 -10.986  -1.893 -0.36 -0.00    +0.000 A 
DOCKED: BRANCH  27  30
DOCKED: ATOM     30  C   UNL     1      20.225 -11.468   1.653 -0.76 -0.00    +0.000 C 
DOCKED: ATOM     31  N   UNL     1      20.641 -10.528   2.650 -0.61 -0.00    +0.000 N 
DOCKED: ATOM     32  O   UNL     1      20.563 -10.849   3.962 -1.10 -0.00    +0.000 OA
DOCKED: ATOM     33  O   UNL     1      19.894 -12.632   2.010 -1.67 -0.00    +0.000 OA
DOCKED: ATOM     34  H   UNL     1      20.985  -9.647   2.379 -0.56 -0.00    +0.000 HD
DOCKED: ENDBRANCH  27  30
DOCKED: ENDBRANCH  22  24
DOCKED: ENDBRANCH  19  21
DOCKED: ENDBRANCH   1  19
DOCKED: TORSDOF 9
DOCKED: TER
DOCKED: ENDMDL
________________________________________________________________________________


	BEGINNING GENETIC ALGORITHM DOCKING 38 of 100
Run: 38 Seed: 452193470 509901251 [ Run 38 of 100 GA/GALS ]
Beginning LAMARCKIAN GENETIC ALGORITHM (LGA), with a maximum of 2500000 energy evaluations.

Final-Value: -14.423


	FINAL GENETIC ALGORITHM DOCKED STATE
	_______________________________________________


Detailed state:  trans 17.158 -11.984 0.059 quatxyzw 0.263842 -0.878647 -0.136459 -0.373825 center 1.619 0.086 0.013 ntor 9 -31.8392 22.7499 119.9633 -87.0592 -64.4220 50.5793 162.8272 96.2367 49.2894
State:	 17.158 -11.984   0.059   0.284 -0.947 -0.147 -136.097    -31.84   22.75  119.96  -87.06  -64.42   50.58  162.83   96.24   49.29

DOCKED: MODEL       38
DOCKED: USER    Run = 38
DOCKED: USER    DPF = ligand_dock.biased.dpf
DOCKED: USER  
DOCKED: USER    Estimated Free Energy of Binding    =   -9.98 kcal/mol  [=(1)+(2)+(3)-(4)]
DOCKED: USER    Estimated Inhibition Constant, Ki   =   48.13 nM (nanomolar)  [Temperature = 298.15 K]
DOCKED: USER    
DOCKED: USER    (1) Final Intermolecular Energy     =  -12.67 kcal/mol
DOCKED: USER        vdW + Hbond + desolv Energy     =  -12.67 kcal/mol
DOCKED: USER        Electrostatic Energy            =   +0.00 kcal/mol
DOCKED: USER    (2) Final Total Internal Energy     =   -1.76 kcal/mol
DOCKED: USER    (3) Torsional Free Energy           =   +2.68 kcal/mol
DOCKED: USER    (4) Unbound System's Energy  [=(2)] =   -1.76 kcal/mol
DOCKED: USER    
DOCKED: USER    
DOCKED: USER    NEWDPF move ligand.pdbqt
DOCKED: USER    NEWDPF about 1.619000 0.086000 0.013000
DOCKED: USER    NEWDPF tran0 17.158277 -11.983710 0.058537
DOCKED: USER    NEWDPF quaternion0 0.263842 -0.878647 -0.136459 -0.373825
DOCKED: USER    NEWDPF axisangle0 0.284466 -0.947329 -0.147126 -136.096622
DOCKED: USER    NEWDPF quat0 0.284466 -0.947329 -0.147126 -136.096622
DOCKED: USER    NEWDPF dihe0 -31.84 22.75 119.96 -87.06 -64.42 50.58 162.83 96.24 49.29 
DOCKED: USER  keepresnum = 1 
DOCKED: USER  
DOCKED: REMARK  Name = 
DOCKED: REMARK  11 active torsions:
DOCKED: REMARK  status: ('A' for Active; 'I' for Inactive)
DOCKED: REMARK    1  A    between atoms: C_2  and  O_3
DOCKED: REMARK    2  A    between atoms: O_3  and  C_4
DOCKED: REMARK    3  A    between atoms: C_4  and  C_5
DOCKED: REMARK    4  A    between atoms: C_10  and  C_11
DOCKED: REMARK    5  A    between atoms: C_11  and  N_12
DOCKED: REMARK    6  A    between atoms: N_12  and  C_13
DOCKED: REMARK    7  A    between atoms: N_12  and  C_15
DOCKED: REMARK    8  A    between atoms: C_13  and  C_14
DOCKED: REMARK    9  A    between atoms: C_15  and  C_16
DOCKED: REMARK   10  A    between atoms: N_21  and  C_22
DOCKED: REMARK   11  A    between atoms: C_25  and  C_26
DOCKED: REMARK                            x       y       z     vdW  Elec       q    Type
DOCKED: REMARK                         _______ _______ _______ _____ _____    ______ ____
DOCKED: USER                              x       y       z     vdW  Elec       q    Type
DOCKED: USER                           _______ _______ _______ _____ _____    ______ ____
DOCKED: ROOT
DOCKED: ATOM      1  C   UNL     1      18.778 -12.554   1.728 -0.32 -0.00    +0.000 C 
DOCKED: ENDROOT
DOCKED: BRANCH   1   2
DOCKED: ATOM      2  C   UNL     1      19.477 -11.635   0.769 -0.58 -0.00    +0.000 A 
DOCKED: ATOM      3  C   UNL     1      20.668 -10.991   1.136 -0.63 -0.00    +0.000 A 
DOCKED: ATOM      4  C   UNL     1      21.307 -10.122   0.245 -0.58 -0.00    +0.000 A 
DOCKED: ATOM      5  C   UNL     1      20.753  -9.874  -1.019 -0.56 -0.00    +0.000 A 
DOCKED: ATOM      6  C   UNL     1      21.381  -8.996  -1.915 -0.47 -0.00    +0.000 A 
DOCKED: ATOM      7  C   UNL     1      20.805  -8.725  -3.167 -0.38 -0.00    +0.000 A 
DOCKED: ATOM      8  C   UNL     1      19.615  -9.373  -3.534 -0.28 -0.00    +0.000 A 
DOCKED: ATOM      9  C   UNL     1      18.986 -10.255  -2.650 -0.31 -0.00    +0.000 A 
DOCKED: ATOM     10  C   UNL     1      19.544 -10.509  -1.389 -0.42 -0.00    +0.000 A 
DOCKED: ATOM     11  C   UNL     1      18.915 -11.387  -0.493 -0.44 -0.00    +0.000 A 
DOCKED: BRANCH   7  12
DOCKED: ATOM     12  C   UNL     1      21.492  -7.789  -4.129 -0.32 -0.00    +0.000 C 
DOCKED: BRANCH  12  13
DOCKED: ATOM     13  N   UNL     1      20.676  -6.578  -4.364 -0.20 -0.00    +0.000 N 
DOCKED: ATOM     14  H   UNL     1      19.736  -6.966  -4.447 -0.01 -0.00    +0.000 HD
DOCKED: BRANCH  13  15
DOCKED: ATOM     15  C   UNL     1      20.598  -5.661  -3.207 -0.29 -0.00    +0.000 C 
DOCKED: ATOM     16  C   UNL     1      21.924  -5.502  -2.457 -0.39 -0.00    +0.000 C 
DOCKED: ENDBRANCH  13  15
DOCKED: BRANCH  13  17
DOCKED: ATOM     17  C   UNL     1      20.826  -5.914  -5.685 -0.11 -0.00    +0.000 C 
DOCKED: ATOM     18  C   UNL     1      22.104  -6.283  -6.451 -0.11 -0.00    +0.000 C 
DOCKED: ENDBRANCH  13  17
DOCKED: ENDBRANCH  12  13
DOCKED: ENDBRANCH   7  12
DOCKED: ENDBRANCH   1   2
DOCKED: BRANCH   1  19
DOCKED: ATOM     19  O   UNL     1      17.404 -12.651   1.369 -0.86 +0.00    +0.000 OA
DOCKED: BRANCH  19  21
DOCKED: ATOM     20  O   UNL     1      15.318 -11.676   1.234 -0.46 +0.00    +0.000 OA
DOCKED: ATOM     21  C   UNL     1      16.441 -11.737   1.806 -0.42 +0.00    +0.000 C 
DOCKED: ATOM     22  N   UNL     1      16.766 -10.844   2.880 -0.45 +0.00    +0.000 N 
DOCKED: ATOM     23  H   UNL     1      17.692 -10.846   3.216 -0.02 +0.00    +0.000 HD
DOCKED: BRANCH  22  24
DOCKED: ATOM     24  C   UNL     1      15.830  -9.946   3.499 -0.41 +0.00    +0.000 A 
DOCKED: ATOM     25  C   UNL     1      15.745  -8.621   3.046 -0.31 +0.00    +0.000 A 
DOCKED: ATOM     26  C   UNL     1      14.863  -7.719   3.646 -0.32 +0.00    +0.000 A 
DOCKED: ATOM     27  C   UNL     1      14.061  -8.120   4.731 -0.35 +0.00    +0.000 A 
DOCKED: ATOM     28  C   UNL     1      14.153  -9.447   5.188 -0.41 +0.00    +0.000 A 
DOCKED: ATOM     29  C   UNL     1      15.036 -10.348   4.585 -0.37 +0.00    +0.000 A 
DOCKED: BRANCH  27  30
DOCKED: ATOM     30  C   UNL     1      13.119  -7.176   5.384 -0.37 +0.00    +0.000 C 
DOCKED: ATOM     31  N   UNL     1      11.728  -7.155   5.046 -0.23 +0.00    +0.000 N 
DOCKED: ATOM     32  O   UNL     1      10.874  -6.358   5.729 -0.30 +0.00    +0.000 OA
DOCKED: ATOM     33  O   UNL     1      13.552  -6.363   6.247 -0.98 +0.00    +0.000 OA
DOCKED: ATOM     34  H   UNL     1      11.393  -7.722   4.315 +0.00 +0.00    +0.000 HD
DOCKED: ENDBRANCH  27  30
DOCKED: ENDBRANCH  22  24
DOCKED: ENDBRANCH  19  21
DOCKED: ENDBRANCH   1  19
DOCKED: TORSDOF 9
DOCKED: TER
DOCKED: ENDMDL
________________________________________________________________________________


	BEGINNING GENETIC ALGORITHM DOCKING 39 of 100
Run: 39 Seed: 1088129843 1716239470 [ Run 39 of 100 GA/GALS ]
Beginning LAMARCKIAN GENETIC ALGORITHM (LGA), with a maximum of 2500000 energy evaluations.

Final-Value: -15.215


	FINAL GENETIC ALGORITHM DOCKED STATE
	_______________________________________________


Detailed state:  trans 20.202 -9.699 0.589 quatxyzw 0.864130 -0.003553 -0.019097 0.502894 center 1.619 0.086 0.013 ntor 9 -178.5269 41.2324 169.9920 -97.6859 121.3178 138.1823 -114.3985 116.6347 162.1591
State:	 20.202  -9.699   0.589   1.000 -0.004 -0.022 119.617   -178.53   41.23  169.99  -97.69  121.32  138.18 -114.40  116.63  162.16

DOCKED: MODEL       39
DOCKED: USER    Run = 39
DOCKED: USER    DPF = ligand_dock.biased.dpf
DOCKED: USER  
DOCKED: USER    Estimated Free Energy of Binding    =  -10.40 kcal/mol  [=(1)+(2)+(3)-(4)]
DOCKED: USER    Estimated Inhibition Constant, Ki   =   23.79 nM (nanomolar)  [Temperature = 298.15 K]
DOCKED: USER    
DOCKED: USER    (1) Final Intermolecular Energy     =  -13.09 kcal/mol
DOCKED: USER        vdW + Hbond + desolv Energy     =  -13.09 kcal/mol
DOCKED: USER        Electrostatic Energy            =   +0.00 kcal/mol
DOCKED: USER    (2) Final Total Internal Energy     =   -2.13 kcal/mol
DOCKED: USER    (3) Torsional Free Energy           =   +2.68 kcal/mol
DOCKED: USER    (4) Unbound System's Energy  [=(2)] =   -2.13 kcal/mol
DOCKED: USER    
DOCKED: USER    
DOCKED: USER    NEWDPF move ligand.pdbqt
DOCKED: USER    NEWDPF about 1.619000 0.086000 0.013000
DOCKED: USER    NEWDPF tran0 20.201720 -9.699328 0.589235
DOCKED: USER    NEWDPF quaternion0 0.864130 -0.003553 -0.019097 0.502894
DOCKED: USER    NEWDPF axisangle0 0.999747 -0.004111 -0.022094 119.616667
DOCKED: USER    NEWDPF quat0 0.999747 -0.004111 -0.022094 119.616667
DOCKED: USER    NEWDPF dihe0 -178.53 41.23 169.99 -97.69 121.32 138.18 -114.40 116.63 162.16 
DOCKED: USER  keepresnum = 1 
DOCKED: USER  
DOCKED: REMARK  Name = 
DOCKED: REMARK  11 active torsions:
DOCKED: REMARK  status: ('A' for Active; 'I' for Inactive)
DOCKED: REMARK    1  A    between atoms: C_2  and  O_3
DOCKED: REMARK    2  A    between atoms: O_3  and  C_4
DOCKED: REMARK    3  A    between atoms: C_4  and  C_5
DOCKED: REMARK    4  A    between atoms: C_10  and  C_11
DOCKED: REMARK    5  A    between atoms: C_11  and  N_12
DOCKED: REMARK    6  A    between atoms: N_12  and  C_13
DOCKED: REMARK    7  A    between atoms: N_12  and  C_15
DOCKED: REMARK    8  A    between atoms: C_13  and  C_14
DOCKED: REMARK    9  A    between atoms: C_15  and  C_16
DOCKED: REMARK   10  A    between atoms: N_21  and  C_22
DOCKED: REMARK   11  A    between atoms: C_25  and  C_26
DOCKED: REMARK                            x       y       z     vdW  Elec       q    Type
DOCKED: REMARK                         _______ _______ _______ _____ _____    ______ ____
DOCKED: USER                              x       y       z     vdW  Elec       q    Type
DOCKED: USER                           _______ _______ _______ _____ _____    ______ ____
DOCKED: ROOT
DOCKED: ATOM      1  C   UNL     1      20.637 -11.573   2.017 -0.76 -0.00    +0.000 C 
DOCKED: ENDROOT
DOCKED: BRANCH   1   2
DOCKED: ATOM      2  C   UNL     1      19.142 -11.473   1.906 -0.58 -0.00    +0.000 A 
DOCKED: ATOM      3  C   UNL     1      18.419 -10.615   2.747 -0.50 -0.00    +0.000 A 
DOCKED: ATOM      4  C   UNL     1      17.026 -10.539   2.653 -0.43 +0.00    +0.000 A 
DOCKED: ATOM      5  C   UNL     1      16.337 -11.333   1.725 -0.39 +0.00    +0.000 A 
DOCKED: ATOM      6  C   UNL     1      14.939 -11.270   1.629 -0.38 +0.00    +0.000 A 
DOCKED: ATOM      7  C   UNL     1      14.250 -12.092   0.723 -0.41 +0.00    +0.000 A 
DOCKED: ATOM      8  C   UNL     1      14.975 -12.949  -0.121 -0.47 +0.00    +0.000 A 
DOCKED: ATOM      9  C   UNL     1      16.370 -13.012  -0.038 -0.46 +0.00    +0.000 A 
DOCKED: ATOM     10  C   UNL     1      17.060 -12.212   0.884 -0.44 +0.00    +0.000 A 
DOCKED: ATOM     11  C   UNL     1      18.458 -12.275   0.979 -0.50 -0.00    +0.000 A 
DOCKED: BRANCH   7  12
DOCKED: ATOM     12  C   UNL     1      12.748 -12.011   0.618 -0.37 +0.00    +0.000 C 
DOCKED: BRANCH  12  13
DOCKED: ATOM     13  N   UNL     1      12.328 -10.737  -0.006 -0.28 +0.00    +0.000 N 
DOCKED: ATOM     14  H   UNL     1      12.818 -10.047   0.565 +0.00 +0.00    +0.000 HD
DOCKED: BRANCH  13  15
DOCKED: ATOM     15  C   UNL     1      12.853 -10.527  -1.373 -0.28 -0.00    +0.000 C 
DOCKED: ATOM     16  C   UNL     1      13.971  -9.485  -1.450 -0.22 -0.00    +0.000 C 
DOCKED: ENDBRANCH  13  15
DOCKED: BRANCH  13  17
DOCKED: ATOM     17  C   UNL     1      10.916 -10.323   0.198 -0.25 +0.00    +0.000 C 
DOCKED: ATOM     18  C   UNL     1      10.074 -11.295   1.036 -0.37 +0.00    +0.000 C 
DOCKED: ENDBRANCH  13  17
DOCKED: ENDBRANCH  12  13
DOCKED: ENDBRANCH   7  12
DOCKED: ENDBRANCH   1   2
DOCKED: BRANCH   1  19
DOCKED: ATOM     19  O   UNL     1      21.236 -10.612   1.154 -0.64 -0.00    +0.000 OA
DOCKED: BRANCH  19  21
DOCKED: ATOM     20  O   UNL     1      22.140 -10.894  -0.949 -0.70 -0.00    +0.000 OA
DOCKED: ATOM     21  C   UNL     1      21.122 -10.670  -0.238 -0.68 -0.00    +0.000 C 
DOCKED: ATOM     22  N   UNL     1      19.846 -10.424  -0.843 -0.47 -0.00    +0.000 N 
DOCKED: ATOM     23  H   UNL     1      19.107 -10.136  -0.258 -0.01 -0.00    +0.000 HD
DOCKED: BRANCH  22  24
DOCKED: ATOM     24  C   UNL     1      19.571 -10.571  -2.246 -0.40 -0.00    +0.000 A 
DOCKED: ATOM     25  C   UNL     1      20.627 -10.838  -3.129 -0.41 -0.00    +0.000 A 
DOCKED: ATOM     26  C   UNL     1      20.394 -10.960  -4.501 -0.44 -0.00    +0.000 A 
DOCKED: ATOM     27  C   UNL     1      19.097 -10.793  -5.022 -0.35 -0.00    +0.000 A 
DOCKED: ATOM     28  C   UNL     1      18.040 -10.519  -4.135 -0.24 -0.00    +0.000 A 
DOCKED: ATOM     29  C   UNL     1      18.277 -10.398  -2.763 -0.26 -0.00    +0.000 A 
DOCKED: BRANCH  27  30
DOCKED: ATOM     30  C   UNL     1      18.828 -10.916  -6.477 -0.37 -0.00    +0.000 C 
DOCKED: ATOM     31  N   UNL     1      17.582 -11.423  -6.967 -0.37 -0.00    +0.000 N 
DOCKED: ATOM     32  O   UNL     1      17.324 -11.428  -8.294 -0.30 -0.00    +0.000 OA
DOCKED: ATOM     33  O   UNL     1      19.720 -10.580  -7.304 -0.31 -0.00    +0.000 OA
DOCKED: ATOM     34  H   UNL     1      16.911 -11.769  -6.335 -0.03 -0.00    +0.000 HD
DOCKED: ENDBRANCH  27  30
DOCKED: ENDBRANCH  22  24
DOCKED: ENDBRANCH  19  21
DOCKED: ENDBRANCH   1  19
DOCKED: TORSDOF 9
DOCKED: TER
DOCKED: ENDMDL
________________________________________________________________________________


	BEGINNING GENETIC ALGORITHM DOCKING 40 of 100
Run: 40 Seed: 687908620 1299572041 [ Run 40 of 100 GA/GALS ]
Beginning LAMARCKIAN GENETIC ALGORITHM (LGA), with a maximum of 2500000 energy evaluations.

Final-Value: -14.682


	FINAL GENETIC ALGORITHM DOCKED STATE
	_______________________________________________


Detailed state:  trans 22.383 -8.451 -5.975 quatxyzw 0.223837 0.509131 0.830566 -0.029013 center 1.619 0.086 0.013 ntor 9 -98.9270 67.4240 124.1774 -45.4941 -165.9344 -85.9778 138.8332 92.6830 36.0542
State:	 22.383  -8.451  -5.975   0.224  0.509  0.831 -176.675    -98.93   67.42  124.18  -45.49 -165.93  -85.98  138.83   92.68   36.05

DOCKED: MODEL       40
DOCKED: USER    Run = 40
DOCKED: USER    DPF = ligand_dock.biased.dpf
DOCKED: USER  
DOCKED: USER    Estimated Free Energy of Binding    =  -10.38 kcal/mol  [=(1)+(2)+(3)-(4)]
DOCKED: USER    Estimated Inhibition Constant, Ki   =   24.54 nM (nanomolar)  [Temperature = 298.15 K]
DOCKED: USER    
DOCKED: USER    (1) Final Intermolecular Energy     =  -13.07 kcal/mol
DOCKED: USER        vdW + Hbond + desolv Energy     =  -13.07 kcal/mol
DOCKED: USER        Electrostatic Energy            =   +0.00 kcal/mol
DOCKED: USER    (2) Final Total Internal Energy     =   -1.61 kcal/mol
DOCKED: USER    (3) Torsional Free Energy           =   +2.68 kcal/mol
DOCKED: USER    (4) Unbound System's Energy  [=(2)] =   -1.61 kcal/mol
DOCKED: USER    
DOCKED: USER    
DOCKED: USER    NEWDPF move ligand.pdbqt
DOCKED: USER    NEWDPF about 1.619000 0.086000 0.013000
DOCKED: USER    NEWDPF tran0 22.383304 -8.451370 -5.974875
DOCKED: USER    NEWDPF quaternion0 0.223837 0.509131 0.830566 -0.029013
DOCKED: USER    NEWDPF axisangle0 0.223931 0.509346 0.830916 -176.674929
DOCKED: USER    NEWDPF quat0 0.223931 0.509346 0.830916 -176.674929
DOCKED: USER    NEWDPF dihe0 -98.93 67.42 124.18 -45.49 -165.93 -85.98 138.83 92.68 36.05 
DOCKED: USER  keepresnum = 1 
DOCKED: USER  
DOCKED: REMARK  Name = 
DOCKED: REMARK  11 active torsions:
DOCKED: REMARK  status: ('A' for Active; 'I' for Inactive)
DOCKED: REMARK    1  A    between atoms: C_2  and  O_3
DOCKED: REMARK    2  A    between atoms: O_3  and  C_4
DOCKED: REMARK    3  A    between atoms: C_4  and  C_5
DOCKED: REMARK    4  A    between atoms: C_10  and  C_11
DOCKED: REMARK    5  A    between atoms: C_11  and  N_12
DOCKED: REMARK    6  A    between atoms: N_12  and  C_13
DOCKED: REMARK    7  A    between atoms: N_12  and  C_15
DOCKED: REMARK    8  A    between atoms: C_13  and  C_14
DOCKED: REMARK    9  A    between atoms: C_15  and  C_16
DOCKED: REMARK   10  A    between atoms: N_21  and  C_22
DOCKED: REMARK   11  A    between atoms: C_25  and  C_26
DOCKED: REMARK                            x       y       z     vdW  Elec       q    Type
DOCKED: REMARK                         _______ _______ _______ _____ _____    ______ ____
DOCKED: USER                              x       y       z     vdW  Elec       q    Type
DOCKED: USER                           _______ _______ _______ _____ _____    ______ ____
DOCKED: ROOT
DOCKED: ATOM      1  C   UNL     1      21.062 -10.150  -7.027 -0.28 -0.00    +0.000 C 
DOCKED: ENDROOT
DOCKED: BRANCH   1   2
DOCKED: ATOM      2  C   UNL     1      22.488 -10.447  -7.393 -0.29 -0.00    +0.000 A 
DOCKED: ATOM      3  C   UNL     1      22.909 -11.768  -7.607 -0.40 -0.00    +0.000 A 
DOCKED: ATOM      4  C   UNL     1      24.242 -12.042  -7.930 -0.44 -0.00    +0.000 A 
DOCKED: ATOM      5  C   UNL     1      25.173 -10.998  -8.028 -0.37 -0.00    +0.000 A 
DOCKED: ATOM      6  C   UNL     1      26.515 -11.264  -8.342 -0.23 -0.00    +0.000 A 
DOCKED: ATOM      7  C   UNL     1      27.452 -10.220  -8.406 -0.37 -0.00    +0.000 A 
DOCKED: ATOM      8  C   UNL     1      27.027  -8.899  -8.194 -0.23 -0.00    +0.000 A 
DOCKED: ATOM      9  C   UNL     1      25.691  -8.623  -7.889 -0.21 -0.00    +0.000 A 
DOCKED: ATOM     10  C   UNL     1      24.757  -9.665  -7.798 -0.26 -0.00    +0.000 A 
DOCKED: ATOM     11  C   UNL     1      23.416  -9.399  -7.484 -0.22 -0.00    +0.000 A 
DOCKED: BRANCH   7  12
DOCKED: ATOM     12  C   UNL     1      28.889 -10.513  -8.755 -0.43 -0.00    +0.000 C 
DOCKED: BRANCH  12  13
DOCKED: ATOM     13  N   UNL     1      29.461  -9.435  -9.592 -0.20 -0.00    +0.000 N 
DOCKED: ATOM     14  H   UNL     1      28.672  -8.796  -9.687 +0.00 -0.00    +0.000 HD
DOCKED: BRANCH  13  15
DOCKED: ATOM     15  C   UNL     1      30.508  -8.635  -8.921 -0.17 -0.00    +0.000 C 
DOCKED: ATOM     16  C   UNL     1      30.373  -8.598  -7.397 -0.27 -0.00    +0.000 C 
DOCKED: ENDBRANCH  13  15
DOCKED: BRANCH  13  17
DOCKED: ATOM     17  C   UNL     1      29.733  -9.764 -11.015 -0.20 -0.00    +0.000 C 
DOCKED: ATOM     18  C   UNL     1      28.862 -10.887 -11.595 -0.25 -0.00    +0.000 C 
DOCKED: ENDBRANCH  13  17
DOCKED: ENDBRANCH  12  13
DOCKED: ENDBRANCH   7  12
DOCKED: ENDBRANCH   1   2
DOCKED: BRANCH   1  19
DOCKED: ATOM     19  O   UNL     1      21.030  -9.062  -6.110 -0.20 -0.00    +0.000 OA
DOCKED: BRANCH  19  21
DOCKED: ATOM     20  O   UNL     1      21.783  -8.447  -4.018 -0.39 -0.00    +0.000 OA
DOCKED: ATOM     21  C   UNL     1      21.098  -9.237  -4.724 -0.35 -0.00    +0.000 C 
DOCKED: ATOM     22  N   UNL     1      20.420 -10.352  -4.129 -0.38 -0.00    +0.000 N 
DOCKED: ATOM     23  H   UNL     1      19.999 -11.008  -4.731 -0.01 -0.00    +0.000 HD
DOCKED: BRANCH  22  24
DOCKED: ATOM     24  C   UNL     1      20.314 -10.575  -2.713 -0.44 -0.00    +0.000 A 
DOCKED: ATOM     25  C   UNL     1      19.055 -10.822  -2.148 -0.37 -0.00    +0.000 A 
DOCKED: ATOM     26  C   UNL     1      18.918 -11.016  -0.772 -0.42 -0.00    +0.000 A 
DOCKED: ATOM     27  C   UNL     1      20.041 -10.944   0.074 -0.55 -0.00    +0.000 A 
DOCKED: ATOM     28  C   UNL     1      21.302 -10.688  -0.494 -0.57 -0.00    +0.000 A 
DOCKED: ATOM     29  C   UNL     1      21.436 -10.495  -1.872 -0.50 -0.00    +0.000 A 
DOCKED: BRANCH  27  30
DOCKED: ATOM     30  C   UNL     1      19.917 -11.144   1.540 -0.71 -0.00    +0.000 C 
DOCKED: ATOM     31  N   UNL     1      20.286 -12.381   2.159 -0.70 -0.00    +0.000 N 
DOCKED: ATOM     32  O   UNL     1      20.260 -12.502   3.506 -1.35 -0.00    +0.000 OA
DOCKED: ATOM     33  O   UNL     1      19.463 -10.211   2.258 -0.71 -0.00    +0.000 OA
DOCKED: ATOM     34  H   UNL     1      20.558 -13.146   1.602 -0.63 -0.00    +0.000 HD
DOCKED: ENDBRANCH  27  30
DOCKED: ENDBRANCH  22  24
DOCKED: ENDBRANCH  19  21
DOCKED: ENDBRANCH   1  19
DOCKED: TORSDOF 9
DOCKED: TER
DOCKED: ENDMDL
________________________________________________________________________________


	BEGINNING GENETIC ALGORITHM DOCKING 41 of 100
Run: 41 Seed: 806403097 539290439 [ Run 41 of 100 GA/GALS ]
Beginning LAMARCKIAN GENETIC ALGORITHM (LGA), with a maximum of 2500000 energy evaluations.

Final-Value: -15.712


	FINAL GENETIC ALGORITHM DOCKED STATE
	_______________________________________________


Detailed state:  trans 18.319 -9.282 -3.878 quatxyzw 0.062017 0.441672 0.015303 -0.894900 center 1.619 0.086 0.013 ntor 9 61.3802 180.0000 -77.2342 148.2285 -30.8430 -104.6210 -119.9784 -165.9471 -32.1814
State:	 18.319  -9.282  -3.878   0.139  0.990  0.034 -53.009     61.38  180.00  -77.23  148.23  -30.84 -104.62 -119.98 -165.95  -32.18

DOCKED: MODEL       41
DOCKED: USER    Run = 41
DOCKED: USER    DPF = ligand_dock.biased.dpf
DOCKED: USER  
DOCKED: USER    Estimated Free Energy of Binding    =  -10.05 kcal/mol  [=(1)+(2)+(3)-(4)]
DOCKED: USER    Estimated Inhibition Constant, Ki   =   42.96 nM (nanomolar)  [Temperature = 298.15 K]
DOCKED: USER    
DOCKED: USER    (1) Final Intermolecular Energy     =  -12.73 kcal/mol
DOCKED: USER        vdW + Hbond + desolv Energy     =  -12.73 kcal/mol
DOCKED: USER        Electrostatic Energy            =   +0.00 kcal/mol
DOCKED: USER    (2) Final Total Internal Energy     =   -2.98 kcal/mol
DOCKED: USER    (3) Torsional Free Energy           =   +2.68 kcal/mol
DOCKED: USER    (4) Unbound System's Energy  [=(2)] =   -2.98 kcal/mol
DOCKED: USER    
DOCKED: USER    
DOCKED: USER    NEWDPF move ligand.pdbqt
DOCKED: USER    NEWDPF about 1.619000 0.086000 0.013000
DOCKED: USER    NEWDPF tran0 18.318936 -9.282284 -3.877770
DOCKED: USER    NEWDPF quaternion0 0.062017 0.441672 0.015303 -0.894900
DOCKED: USER    NEWDPF axisangle0 0.138967 0.989703 0.034292 -53.008887
DOCKED: USER    NEWDPF quat0 0.138967 0.989703 0.034292 -53.008887
DOCKED: USER    NEWDPF dihe0 61.38 180.00 -77.23 148.23 -30.84 -104.62 -119.98 -165.95 -32.18 
DOCKED: USER  keepresnum = 1 
DOCKED: USER  
DOCKED: REMARK  Name = 
DOCKED: REMARK  11 active torsions:
DOCKED: REMARK  status: ('A' for Active; 'I' for Inactive)
DOCKED: REMARK    1  A    between atoms: C_2  and  O_3
DOCKED: REMARK    2  A    between atoms: O_3  and  C_4
DOCKED: REMARK    3  A    between atoms: C_4  and  C_5
DOCKED: REMARK    4  A    between atoms: C_10  and  C_11
DOCKED: REMARK    5  A    between atoms: C_11  and  N_12
DOCKED: REMARK    6  A    between atoms: N_12  and  C_13
DOCKED: REMARK    7  A    between atoms: N_12  and  C_15
DOCKED: REMARK    8  A    between atoms: C_13  and  C_14
DOCKED: REMARK    9  A    between atoms: C_15  and  C_16
DOCKED: REMARK   10  A    between atoms: N_21  and  C_22
DOCKED: REMARK   11  A    between atoms: C_25  and  C_26
DOCKED: REMARK                            x       y       z     vdW  Elec       q    Type
DOCKED: REMARK                         _______ _______ _______ _____ _____    ______ ____
DOCKED: USER                              x       y       z     vdW  Elec       q    Type
DOCKED: USER                           _______ _______ _______ _____ _____    ______ ____
DOCKED: ROOT
DOCKED: ATOM      1  C   UNL     1      16.669  -9.348  -5.613 -0.16 -0.00    +0.000 C 
DOCKED: ENDROOT
DOCKED: BRANCH   1   2
DOCKED: ATOM      2  C   UNL     1      15.911  -9.404  -4.318 -0.18 -0.00    +0.000 A 
DOCKED: ATOM      3  C   UNL     1      15.654  -8.233  -3.590 -0.10 -0.00    +0.000 A 
DOCKED: ATOM      4  C   UNL     1      14.964  -8.292  -2.375 -0.13 -0.00    +0.000 A 
DOCKED: ATOM      5  C   UNL     1      14.534  -9.526  -1.866 -0.21 -0.00    +0.000 A 
DOCKED: ATOM      6  C   UNL     1      13.849  -9.596  -0.644 -0.19 -0.00    +0.000 A 
DOCKED: ATOM      7  C   UNL     1      13.451 -10.837  -0.121 -0.28 +0.00    +0.000 A 
DOCKED: ATOM      8  C   UNL     1      13.707 -12.008  -0.853 -0.24 +0.00    +0.000 A 
DOCKED: ATOM      9  C   UNL     1      14.382 -11.947  -2.076 -0.29 -0.00    +0.000 A 
DOCKED: ATOM     10  C   UNL     1      14.804 -10.712  -2.589 -0.27 -0.00    +0.000 A 
DOCKED: ATOM     11  C   UNL     1      15.489 -10.643  -3.811 -0.20 -0.00    +0.000 A 
DOCKED: BRANCH   7  12
DOCKED: ATOM     12  C   UNL     1      12.705 -10.903   1.188 -0.36 +0.00    +0.000 C 
DOCKED: BRANCH  12  13
DOCKED: ATOM     13  N   UNL     1      13.638 -10.829   2.334 -0.34 +0.00    +0.000 N 
DOCKED: ATOM     14  H   UNL     1      13.043 -11.112   3.113 -0.04 +0.00    +0.000 HD
DOCKED: BRANCH  13  15
DOCKED: ATOM     15  C   UNL     1      14.718 -11.838   2.306 -0.50 +0.00    +0.000 C 
DOCKED: ATOM     16  C   UNL     1      16.106 -11.264   2.603 -0.49 +0.00    +0.000 C 
DOCKED: ENDBRANCH  13  15
DOCKED: BRANCH  13  17
DOCKED: ATOM     17  C   UNL     1      14.054  -9.472   2.773 -0.30 +0.00    +0.000 C 
DOCKED: ATOM     18  C   UNL     1      14.106  -9.275   4.295 -0.40 +0.00    +0.000 C 
DOCKED: ENDBRANCH  13  17
DOCKED: ENDBRANCH  12  13
DOCKED: ENDBRANCH   7  12
DOCKED: ENDBRANCH   1   2
DOCKED: BRANCH   1  19
DOCKED: ATOM     19  O   UNL     1      18.053  -9.158  -5.340 -0.17 -0.00    +0.000 OA
DOCKED: BRANCH  19  21
DOCKED: ATOM     20  O   UNL     1      19.163  -8.310  -3.504 -0.17 -0.00    +0.000 OA
DOCKED: ATOM     21  C   UNL     1      18.597  -9.291  -4.059 -0.25 -0.00    +0.000 C 
DOCKED: ATOM     22  N   UNL     1      18.541 -10.568  -3.408 -0.31 -0.00    +0.000 N 
DOCKED: ATOM     23  H   UNL     1      18.197 -11.333  -3.925 -0.00 -0.00    +0.000 HD
DOCKED: BRANCH  22  24
DOCKED: ATOM     24  C   UNL     1      18.954 -10.806  -2.052 -0.36 -0.00    +0.000 A 
DOCKED: ATOM     25  C   UNL     1      17.986 -11.099  -1.080 -0.33 -0.00    +0.000 A 
DOCKED: ATOM     26  C   UNL     1      18.356 -11.308   0.251 -0.44 -0.00    +0.000 A 
DOCKED: ATOM     27  C   UNL     1      19.704 -11.207   0.642 -0.57 -0.00    +0.000 A 
DOCKED: ATOM     28  C   UNL     1      20.672 -10.907  -0.334 -0.54 -0.00    +0.000 A 
DOCKED: ATOM     29  C   UNL     1      20.299 -10.698  -1.665 -0.42 -0.00    +0.000 A 
DOCKED: BRANCH  27  30
DOCKED: ATOM     30  C   UNL     1      20.116 -11.424   2.051 -0.76 -0.00    +0.000 C 
DOCKED: ATOM     31  N   UNL     1      20.364 -10.324   2.935 -0.53 -0.00    +0.000 N 
DOCKED: ATOM     32  O   UNL     1      20.638 -10.549   4.240 -0.95 -0.00    +0.000 OA
DOCKED: ATOM     33  O   UNL     1      20.267 -12.600   2.481 -1.72 -0.00    +0.000 OA
DOCKED: ATOM     34  H   UNL     1      20.335  -9.403   2.590 -0.53 -0.00    +0.000 HD
DOCKED: ENDBRANCH  27  30
DOCKED: ENDBRANCH  22  24
DOCKED: ENDBRANCH  19  21
DOCKED: ENDBRANCH   1  19
DOCKED: TORSDOF 9
DOCKED: TER
DOCKED: ENDMDL
________________________________________________________________________________


	BEGINNING GENETIC ALGORITHM DOCKING 42 of 100
Run: 42 Seed: 447177965 1240161638 [ Run 42 of 100 GA/GALS ]
Beginning LAMARCKIAN GENETIC ALGORITHM (LGA), with a maximum of 2500000 energy evaluations.

Final-Value: -15.118


	FINAL GENETIC ALGORITHM DOCKED STATE
	_______________________________________________


Detailed state:  trans 16.226 -8.986 4.044 quatxyzw 0.382356 0.558502 0.681149 0.279133 center 1.619 0.086 0.013 ntor 9 96.4032 55.7259 -76.5524 -87.0699 118.7664 83.4617 79.6439 -51.9519 127.3004
State:	 16.226  -8.986   4.044   0.398  0.582  0.709 147.583     96.40   55.73  -76.55  -87.07  118.77   83.46   79.64  -51.95  127.30

DOCKED: MODEL       42
DOCKED: USER    Run = 42
DOCKED: USER    DPF = ligand_dock.biased.dpf
DOCKED: USER  
DOCKED: USER    Estimated Free Energy of Binding    =  -10.96 kcal/mol  [=(1)+(2)+(3)-(4)]
DOCKED: USER    Estimated Inhibition Constant, Ki   =    9.28 nM (nanomolar)  [Temperature = 298.15 K]
DOCKED: USER    
DOCKED: USER    (1) Final Intermolecular Energy     =  -13.64 kcal/mol
DOCKED: USER        vdW + Hbond + desolv Energy     =  -13.64 kcal/mol
DOCKED: USER        Electrostatic Energy            =   +0.00 kcal/mol
DOCKED: USER    (2) Final Total Internal Energy     =   -1.47 kcal/mol
DOCKED: USER    (3) Torsional Free Energy           =   +2.68 kcal/mol
DOCKED: USER    (4) Unbound System's Energy  [=(2)] =   -1.47 kcal/mol
DOCKED: USER    
DOCKED: USER    
DOCKED: USER    NEWDPF move ligand.pdbqt
DOCKED: USER    NEWDPF about 1.619000 0.086000 0.013000
DOCKED: USER    NEWDPF tran0 16.225526 -8.986277 4.043642
DOCKED: USER    NEWDPF quaternion0 0.382356 0.558502 0.681149 0.279133
DOCKED: USER    NEWDPF axisangle0 0.398183 0.581620 0.709344 147.583121
DOCKED: USER    NEWDPF quat0 0.398183 0.581620 0.709344 147.583121
DOCKED: USER    NEWDPF dihe0 96.40 55.73 -76.55 -87.07 118.77 83.46 79.64 -51.95 127.30 
DOCKED: USER  keepresnum = 1 
DOCKED: USER  
DOCKED: REMARK  Name = 
DOCKED: REMARK  11 active torsions:
DOCKED: REMARK  status: ('A' for Active; 'I' for Inactive)
DOCKED: REMARK    1  A    between atoms: C_2  and  O_3
DOCKED: REMARK    2  A    between atoms: O_3  and  C_4
DOCKED: REMARK    3  A    between atoms: C_4  and  C_5
DOCKED: REMARK    4  A    between atoms: C_10  and  C_11
DOCKED: REMARK    5  A    between atoms: C_11  and  N_12
DOCKED: REMARK    6  A    between atoms: N_12  and  C_13
DOCKED: REMARK    7  A    between atoms: N_12  and  C_15
DOCKED: REMARK    8  A    between atoms: C_13  and  C_14
DOCKED: REMARK    9  A    between atoms: C_15  and  C_16
DOCKED: REMARK   10  A    between atoms: N_21  and  C_22
DOCKED: REMARK   11  A    between atoms: C_25  and  C_26
DOCKED: REMARK                            x       y       z     vdW  Elec       q    Type
DOCKED: REMARK                         _______ _______ _______ _____ _____    ______ ____
DOCKED: USER                              x       y       z     vdW  Elec       q    Type
DOCKED: USER                           _______ _______ _______ _____ _____    ______ ____
DOCKED: ROOT
DOCKED: ATOM      1  C   UNL     1      15.274 -11.183   3.967 -0.46 +0.00    +0.000 C 
DOCKED: ENDROOT
DOCKED: BRANCH   1   2
DOCKED: ATOM      2  C   UNL     1      16.203 -11.092   2.790 -0.43 +0.00    +0.000 A 
DOCKED: ATOM      3  C   UNL     1      15.717 -11.247   1.483 -0.36 +0.00    +0.000 A 
DOCKED: ATOM      4  C   UNL     1      16.588 -11.178   0.391 -0.34 +0.00    +0.000 A 
DOCKED: ATOM      5  C   UNL     1      17.959 -10.968   0.594 -0.39 -0.00    +0.000 A 
DOCKED: ATOM      6  C   UNL     1      18.842 -10.907  -0.495 -0.42 -0.00    +0.000 A 
DOCKED: ATOM      7  C   UNL     1      20.220 -10.731  -0.285 -0.55 -0.00    +0.000 A 
DOCKED: ATOM      8  C   UNL     1      20.704 -10.572   1.023 -0.59 -0.00    +0.000 A 
DOCKED: ATOM      9  C   UNL     1      19.830 -10.623   2.114 -0.59 -0.00    +0.000 A 
DOCKED: ATOM     10  C   UNL     1      18.458 -10.825   1.911 -0.48 -0.00    +0.000 A 
DOCKED: ATOM     11  C   UNL     1      17.575 -10.887   3.000 -0.42 +0.00    +0.000 A 
DOCKED: BRANCH   7  12
DOCKED: ATOM     12  C   UNL     1      21.160 -10.655  -1.461 -0.55 -0.00    +0.000 C 
DOCKED: BRANCH  12  13
DOCKED: ATOM     13  N   UNL     1      20.932  -9.421  -2.244 -0.49 -0.00    +0.000 N 
DOCKED: ATOM     14  H   UNL     1      19.913  -9.367  -2.265 -0.01 -0.00    +0.000 HD
DOCKED: BRANCH  13  15
DOCKED: ATOM     15  C   UNL     1      21.355  -8.180  -1.562 -0.48 -0.00    +0.000 C 
DOCKED: ATOM     16  C   UNL     1      21.373  -6.951  -2.474 -0.46 -0.00    +0.000 C 
DOCKED: ENDBRANCH  13  15
DOCKED: BRANCH  13  17
DOCKED: ATOM     17  C   UNL     1      21.242  -9.481  -3.696 -0.45 -0.00    +0.000 C 
DOCKED: ATOM     18  C   UNL     1      21.434 -10.897  -4.257 -0.53 -0.00    +0.000 C 
DOCKED: ENDBRANCH  13  17
DOCKED: ENDBRANCH  12  13
DOCKED: ENDBRANCH   7  12
DOCKED: ENDBRANCH   1   2
DOCKED: BRANCH   1  19
DOCKED: ATOM     19  O   UNL     1      15.389 -10.000   4.749 -0.47 +0.00    +0.000 OA
DOCKED: BRANCH  19  21
DOCKED: ATOM     20  O   UNL     1      13.546  -9.541   6.058 -0.66 +0.00    +0.000 OA
DOCKED: ATOM     21  C   UNL     1      14.289  -9.209   5.093 -0.47 +0.00    +0.000 C 
DOCKED: ATOM     22  N   UNL     1      13.992  -8.048   4.305 -0.29 +0.00    +0.000 N 
DOCKED: ATOM     23  H   UNL     1      14.526  -7.895   3.492 -0.00 +0.00    +0.000 HD
DOCKED: BRANCH  22  24
DOCKED: ATOM     24  C   UNL     1      12.967  -7.092   4.624 -0.23 +0.00    +0.000 A 
DOCKED: ATOM     25  C   UNL     1      11.629  -7.510   4.679 -0.19 +0.00    +0.000 A 
DOCKED: ATOM     26  C   UNL     1      10.610  -6.597   4.961 -0.17 +0.00    +0.000 A 
DOCKED: ATOM     27  C   UNL     1      10.907  -5.238   5.172 -0.24 +0.00    +0.000 A 
DOCKED: ATOM     28  C   UNL     1      12.249  -4.820   5.110 -0.25 +0.00    +0.000 A 
DOCKED: ATOM     29  C   UNL     1      13.267  -5.736   4.828 -0.26 +0.00    +0.000 A 
DOCKED: BRANCH  27  30
DOCKED: ATOM     30  C   UNL     1       9.838  -4.252   5.470 -0.40 +0.00    +0.000 C 
DOCKED: ATOM     31  N   UNL     1       9.296  -3.406   4.450 -0.34 +0.00    +0.000 N 
DOCKED: ATOM     32  O   UNL     1       8.253  -2.590   4.726 -0.51 +0.00    +0.000 OA
DOCKED: ATOM     33  O   UNL     1       9.404  -4.144   6.650 -1.09 +0.00    +0.000 OA
DOCKED: ATOM     34  H   UNL     1       9.685  -3.418   3.546 -0.07 +0.00    +0.000 HD
DOCKED: ENDBRANCH  27  30
DOCKED: ENDBRANCH  22  24
DOCKED: ENDBRANCH  19  21
DOCKED: ENDBRANCH   1  19
DOCKED: TORSDOF 9
DOCKED: TER
DOCKED: ENDMDL
________________________________________________________________________________


	BEGINNING GENETIC ALGORITHM DOCKING 43 of 100
Run: 43 Seed: 867236621 795530698 [ Run 43 of 100 GA/GALS ]
Beginning LAMARCKIAN GENETIC ALGORITHM (LGA), with a maximum of 2500000 energy evaluations.

Final-Value: -13.672


	FINAL GENETIC ALGORITHM DOCKED STATE
	_______________________________________________


Detailed state:  trans 20.127 -6.886 -4.265 quatxyzw 0.146358 0.140018 -0.201631 0.958290 center 1.619 0.086 0.013 ntor 9 -163.1011 -99.5494 -149.0832 15.9155 173.0084 -104.0240 -136.8202 -118.9212 -27.9023
State:	 20.127  -6.886  -4.265   0.512  0.490 -0.706 33.213   -163.10  -99.55 -149.08   15.92  173.01 -104.02 -136.82 -118.92  -27.90

DOCKED: MODEL       43
DOCKED: USER    Run = 43
DOCKED: USER    DPF = ligand_dock.biased.dpf
DOCKED: USER  
DOCKED: USER    Estimated Free Energy of Binding    =   -8.97 kcal/mol  [=(1)+(2)+(3)-(4)]
DOCKED: USER    Estimated Inhibition Constant, Ki   =  264.19 nM (nanomolar)  [Temperature = 298.15 K]
DOCKED: USER    
DOCKED: USER    (1) Final Intermolecular Energy     =  -11.66 kcal/mol
DOCKED: USER        vdW + Hbond + desolv Energy     =  -11.66 kcal/mol
DOCKED: USER        Electrostatic Energy            =   +0.00 kcal/mol
DOCKED: USER    (2) Final Total Internal Energy     =   -2.01 kcal/mol
DOCKED: USER    (3) Torsional Free Energy           =   +2.68 kcal/mol
DOCKED: USER    (4) Unbound System's Energy  [=(2)] =   -2.01 kcal/mol
DOCKED: USER    
DOCKED: USER    
DOCKED: USER    NEWDPF move ligand.pdbqt
DOCKED: USER    NEWDPF about 1.619000 0.086000 0.013000
DOCKED: USER    NEWDPF tran0 20.126867 -6.885866 -4.265342
DOCKED: USER    NEWDPF quaternion0 0.146358 0.140018 -0.201631 0.958290
DOCKED: USER    NEWDPF axisangle0 0.512102 0.489919 -0.705500 33.213174
DOCKED: USER    NEWDPF quat0 0.512102 0.489919 -0.705500 33.213174
DOCKED: USER    NEWDPF dihe0 -163.10 -99.55 -149.08 15.92 173.01 -104.02 -136.82 -118.92 -27.90 
DOCKED: USER  keepresnum = 1 
DOCKED: USER  
DOCKED: REMARK  Name = 
DOCKED: REMARK  11 active torsions:
DOCKED: REMARK  status: ('A' for Active; 'I' for Inactive)
DOCKED: REMARK    1  A    between atoms: C_2  and  O_3
DOCKED: REMARK    2  A    between atoms: O_3  and  C_4
DOCKED: REMARK    3  A    between atoms: C_4  and  C_5
DOCKED: REMARK    4  A    between atoms: C_10  and  C_11
DOCKED: REMARK    5  A    between atoms: C_11  and  N_12
DOCKED: REMARK    6  A    between atoms: N_12  and  C_13
DOCKED: REMARK    7  A    between atoms: N_12  and  C_15
DOCKED: REMARK    8  A    between atoms: C_13  and  C_14
DOCKED: REMARK    9  A    between atoms: C_15  and  C_16
DOCKED: REMARK   10  A    between atoms: N_21  and  C_22
DOCKED: REMARK   11  A    between atoms: C_25  and  C_26
DOCKED: REMARK                            x       y       z     vdW  Elec       q    Type
DOCKED: REMARK                         _______ _______ _______ _____ _____    ______ ____
DOCKED: USER                              x       y       z     vdW  Elec       q    Type
DOCKED: USER                           _______ _______ _______ _____ _____    ______ ____
DOCKED: ROOT
DOCKED: ATOM      1  C   UNL     1      21.322  -7.544  -6.234 -0.14 -0.00    +0.000 C 
DOCKED: ENDROOT
DOCKED: BRANCH   1   2
DOCKED: ATOM      2  C   UNL     1      19.924  -8.064  -6.404 -0.09 -0.00    +0.000 A 
DOCKED: ATOM      3  C   UNL     1      18.915  -7.243  -6.930 -0.05 -0.00    +0.000 A 
DOCKED: ATOM      4  C   UNL     1      17.610  -7.726  -7.070 -0.05 -0.00    +0.000 A 
DOCKED: ATOM      5  C   UNL     1      17.295  -9.033  -6.672 -0.10 -0.00    +0.000 A 
DOCKED: ATOM      6  C   UNL     1      15.986  -9.523  -6.800 -0.10 -0.00    +0.000 A 
DOCKED: ATOM      7  C   UNL     1      15.666 -10.820  -6.368 -0.22 -0.00    +0.000 A 
DOCKED: ATOM      8  C   UNL     1      16.678 -11.642  -5.845 -0.14 -0.00    +0.000 A 
DOCKED: ATOM      9  C   UNL     1      17.986 -11.165  -5.721 -0.32 -0.00    +0.000 A 
DOCKED: ATOM     10  C   UNL     1      18.304  -9.861  -6.127 -0.19 -0.00    +0.000 A 
DOCKED: ATOM     11  C   UNL     1      19.613  -9.371  -5.998 -0.17 -0.00    +0.000 A 
DOCKED: BRANCH   7  12
DOCKED: ATOM     12  C   UNL     1      14.261 -11.343  -6.520 -0.25 -0.00    +0.000 C 
DOCKED: BRANCH  12  13
DOCKED: ATOM     13  N   UNL     1      14.240 -12.581  -7.329 -0.31 -0.00    +0.000 N 
DOCKED: ATOM     14  H   UNL     1      14.816 -13.212  -6.771 -0.03 -0.00    +0.000 HD
DOCKED: BRANCH  13  15
DOCKED: ATOM     15  C   UNL     1      12.920 -13.244  -7.395 -0.33 -0.00    +0.000 C 
DOCKED: ATOM     16  C   UNL     1      12.699 -14.286  -6.296 -0.30 -0.00    +0.000 C 
DOCKED: ENDBRANCH  13  15
DOCKED: BRANCH  13  17
DOCKED: ATOM     17  C   UNL     1      14.999 -12.560  -8.606 -0.34 -0.00    +0.000 C 
DOCKED: ATOM     18  C   UNL     1      14.319 -13.289  -9.773 -0.28 +0.00    +0.000 C 
DOCKED: ENDBRANCH  13  17
DOCKED: ENDBRANCH  12  13
DOCKED: ENDBRANCH   7  12
DOCKED: ENDBRANCH   1   2
DOCKED: BRANCH   1  19
DOCKED: ATOM     19  O   UNL     1      21.391  -6.763  -5.046 -0.19 -0.00    +0.000 OA
DOCKED: BRANCH  19  21
DOCKED: ATOM     20  O   UNL     1      20.374  -6.609  -2.981 -0.33 -0.00    +0.000 OA
DOCKED: ATOM     21  C   UNL     1      21.083  -7.277  -3.783 -0.33 -0.00    +0.000 C 
DOCKED: ATOM     22  N   UNL     1      21.624  -8.549  -3.399 -0.38 -0.00    +0.000 N 
DOCKED: ATOM     23  H   UNL     1      22.267  -8.979  -4.008 -0.04 -0.00    +0.000 HD
DOCKED: BRANCH  22  24
DOCKED: ATOM     24  C   UNL     1      21.288  -9.238  -2.183 -0.47 -0.00    +0.000 A 
DOCKED: ATOM     25  C   UNL     1      20.537 -10.421  -2.248 -0.47 -0.00    +0.000 A 
DOCKED: ATOM     26  C   UNL     1      20.174 -11.098  -1.081 -0.22 -0.00    +0.000 A 
DOCKED: ATOM     27  C   UNL     1      20.537 -10.591   0.181 -0.60 -0.00    +0.000 A 
DOCKED: ATOM     28  C   UNL     1      21.285  -9.401   0.244 -0.38 -0.00    +0.000 A 
DOCKED: ATOM     29  C   UNL     1      21.647  -8.726  -0.926 -0.15 -0.00    +0.000 A 
DOCKED: BRANCH  27  30
DOCKED: ATOM     30  C   UNL     1      20.159 -11.294   1.433 -0.74 -0.00    +0.000 C 
DOCKED: ATOM     31  N   UNL     1      20.366 -10.696   2.717 -0.66 -0.00    +0.000 N 
DOCKED: ATOM     32  O   UNL     1      19.918 -11.313   3.834 -1.19 -0.00    +0.000 OA
DOCKED: ATOM     33  O   UNL     1      19.657 -12.449   1.369 -1.54 -0.00    +0.000 OA
DOCKED: ATOM     34  H   UNL     1      20.835  -9.833   2.786 -0.57 -0.00    +0.000 HD
DOCKED: ENDBRANCH  27  30
DOCKED: ENDBRANCH  22  24
DOCKED: ENDBRANCH  19  21
DOCKED: ENDBRANCH   1  19
DOCKED: TORSDOF 9
DOCKED: TER
DOCKED: ENDMDL
________________________________________________________________________________


	BEGINNING GENETIC ALGORITHM DOCKING 44 of 100
Run: 44 Seed: 1900571684 382006315 [ Run 44 of 100 GA/GALS ]
Beginning LAMARCKIAN GENETIC ALGORITHM (LGA), with a maximum of 2500000 energy evaluations.

Final-Value: -15.077


	FINAL GENETIC ALGORITHM DOCKED STATE
	_______________________________________________


Detailed state:  trans 19.261 -10.161 1.836 quatxyzw -0.048709 -0.590775 -0.354611 -0.723093 center 1.619 0.086 0.013 ntor 9 -155.6241 124.6690 162.8001 -46.2465 146.0380 -110.8207 -126.4878 -124.8195 -22.6685
State:	 19.261 -10.161   1.836  -0.071 -0.855 -0.513 -87.379   -155.62  124.67  162.80  -46.25  146.04 -110.82 -126.49 -124.82  -22.67

DOCKED: MODEL       44
DOCKED: USER    Run = 44
DOCKED: USER    DPF = ligand_dock.biased.dpf
DOCKED: USER  
DOCKED: USER    Estimated Free Energy of Binding    =  -10.24 kcal/mol  [=(1)+(2)+(3)-(4)]
DOCKED: USER    Estimated Inhibition Constant, Ki   =   31.33 nM (nanomolar)  [Temperature = 298.15 K]
DOCKED: USER    
DOCKED: USER    (1) Final Intermolecular Energy     =  -12.92 kcal/mol
DOCKED: USER        vdW + Hbond + desolv Energy     =  -12.92 kcal/mol
DOCKED: USER        Electrostatic Energy            =   +0.00 kcal/mol
DOCKED: USER    (2) Final Total Internal Energy     =   -2.16 kcal/mol
DOCKED: USER    (3) Torsional Free Energy           =   +2.68 kcal/mol
DOCKED: USER    (4) Unbound System's Energy  [=(2)] =   -2.16 kcal/mol
DOCKED: USER    
DOCKED: USER    
DOCKED: USER    NEWDPF move ligand.pdbqt
DOCKED: USER    NEWDPF about 1.619000 0.086000 0.013000
DOCKED: USER    NEWDPF tran0 19.261287 -10.161133 1.835724
DOCKED: USER    NEWDPF quaternion0 -0.048709 -0.590775 -0.354611 -0.723093
DOCKED: USER    NEWDPF axisangle0 -0.070516 -0.855265 -0.513370 -87.379206
DOCKED: USER    NEWDPF quat0 -0.070516 -0.855265 -0.513370 -87.379206
DOCKED: USER    NEWDPF dihe0 -155.62 124.67 162.80 -46.25 146.04 -110.82 -126.49 -124.82 -22.67 
DOCKED: USER  keepresnum = 1 
DOCKED: USER  
DOCKED: REMARK  Name = 
DOCKED: REMARK  11 active torsions:
DOCKED: REMARK  status: ('A' for Active; 'I' for Inactive)
DOCKED: REMARK    1  A    between atoms: C_2  and  O_3
DOCKED: REMARK    2  A    between atoms: O_3  and  C_4
DOCKED: REMARK    3  A    between atoms: C_4  and  C_5
DOCKED: REMARK    4  A    between atoms: C_10  and  C_11
DOCKED: REMARK    5  A    between atoms: C_11  and  N_12
DOCKED: REMARK    6  A    between atoms: N_12  and  C_13
DOCKED: REMARK    7  A    between atoms: N_12  and  C_15
DOCKED: REMARK    8  A    between atoms: C_13  and  C_14
DOCKED: REMARK    9  A    between atoms: C_15  and  C_16
DOCKED: REMARK   10  A    between atoms: N_21  and  C_22
DOCKED: REMARK   11  A    between atoms: C_25  and  C_26
DOCKED: REMARK                            x       y       z     vdW  Elec       q    Type
DOCKED: REMARK                         _______ _______ _______ _____ _____    ______ ____
DOCKED: USER                              x       y       z     vdW  Elec       q    Type
DOCKED: USER                           _______ _______ _______ _____ _____    ______ ____
DOCKED: ROOT
DOCKED: ATOM      1  C   UNL     1      21.017 -11.715   1.343 -0.61 -0.00    +0.000 C 
DOCKED: ENDROOT
DOCKED: BRANCH   1   2
DOCKED: ATOM      2  C   UNL     1      20.838 -10.884   0.105 -0.60 -0.00    +0.000 A 
DOCKED: ATOM      3  C   UNL     1      21.573  -9.702  -0.074 -0.54 -0.00    +0.000 A 
DOCKED: ATOM      4  C   UNL     1      21.391  -8.922  -1.221 -0.50 -0.00    +0.000 A 
DOCKED: ATOM      5  C   UNL     1      20.460  -9.307  -2.196 -0.39 -0.00    +0.000 A 
DOCKED: ATOM      6  C   UNL     1      20.263  -8.525  -3.344 -0.29 -0.00    +0.000 A 
DOCKED: ATOM      7  C   UNL     1      19.305  -8.896  -4.302 -0.21 -0.00    +0.000 A 
DOCKED: ATOM      8  C   UNL     1      18.572 -10.080  -4.122 -0.27 -0.00    +0.000 A 
DOCKED: ATOM      9  C   UNL     1      18.767 -10.869  -2.984 -0.27 -0.00    +0.000 A 
DOCKED: ATOM     10  C   UNL     1      19.704 -10.490  -2.013 -0.41 -0.00    +0.000 A 
DOCKED: ATOM     11  C   UNL     1      19.900 -11.271  -0.865 -0.28 -0.00    +0.000 A 
DOCKED: BRANCH   7  12
DOCKED: ATOM     12  C   UNL     1      19.108  -8.057  -5.539 -0.15 -0.00    +0.000 C 
DOCKED: BRANCH  12  13
DOCKED: ATOM     13  N   UNL     1      19.899  -8.587  -6.670 -0.10 -0.00    +0.000 N 
DOCKED: ATOM     14  H   UNL     1      20.374  -9.384  -6.245 +0.01 -0.00    +0.000 HD
DOCKED: BRANCH  13  15
DOCKED: ATOM     15  C   UNL     1      19.089  -9.174  -7.758 -0.14 -0.00    +0.000 C 
DOCKED: ATOM     16  C   UNL     1      18.679 -10.627  -7.506 -0.30 -0.00    +0.000 C 
DOCKED: ENDBRANCH  13  15
DOCKED: BRANCH  13  17
DOCKED: ATOM     17  C   UNL     1      21.059  -7.773  -7.117 -0.09 -0.00    +0.000 C 
DOCKED: ATOM     18  C   UNL     1      22.345  -7.983  -6.305 -0.20 -0.00    +0.000 C 
DOCKED: ENDBRANCH  13  17
DOCKED: ENDBRANCH  12  13
DOCKED: ENDBRANCH   7  12
DOCKED: ENDBRANCH   1   2
DOCKED: BRANCH   1  19
DOCKED: ATOM     19  O   UNL     1      20.178 -11.206   2.375 -1.32 -0.00    +0.000 OA
DOCKED: BRANCH  19  21
DOCKED: ATOM     20  O   UNL     1      18.297  -9.873   2.442 -0.58 -0.00    +0.000 OA
DOCKED: ATOM     21  C   UNL     1      18.806 -11.003   2.204 -0.60 -0.00    +0.000 C 
DOCKED: ATOM     22  N   UNL     1      17.984 -12.107   1.801 -0.35 +0.00    +0.000 N 
DOCKED: ATOM     23  H   UNL     1      18.404 -12.996   1.743 -0.12 +0.00    +0.000 HD
DOCKED: BRANCH  22  24
DOCKED: ATOM     24  C   UNL     1      16.587 -12.002   1.477 -0.38 +0.00    +0.000 A 
DOCKED: ATOM     25  C   UNL     1      16.189 -12.039   0.133 -0.42 +0.00    +0.000 A 
DOCKED: ATOM     26  C   UNL     1      14.841 -11.913  -0.213 -0.40 +0.00    +0.000 A 
DOCKED: ATOM     27  C   UNL     1      13.863 -11.724   0.782 -0.39 +0.00    +0.000 A 
DOCKED: ATOM     28  C   UNL     1      14.267 -11.680   2.129 -0.42 +0.00    +0.000 A 
DOCKED: ATOM     29  C   UNL     1      15.616 -11.807   2.472 -0.39 +0.00    +0.000 A 
DOCKED: BRANCH  27  30
DOCKED: ATOM     30  C   UNL     1      12.427 -11.585   0.434 -0.40 +0.00    +0.000 C 
DOCKED: ATOM     31  N   UNL     1      11.403 -12.191   1.232 -0.43 +0.00    +0.000 N 
DOCKED: ATOM     32  O   UNL     1      10.100 -11.964   0.953 -0.47 +0.00    +0.000 OA
DOCKED: ATOM     33  O   UNL     1      12.096 -10.931  -0.593 -0.34 +0.00    +0.000 OA
DOCKED: ATOM     34  H   UNL     1      11.650 -12.775   1.985 -0.52 +0.00    +0.000 HD
DOCKED: ENDBRANCH  27  30
DOCKED: ENDBRANCH  22  24
DOCKED: ENDBRANCH  19  21
DOCKED: ENDBRANCH   1  19
DOCKED: TORSDOF 9
DOCKED: TER
DOCKED: ENDMDL
________________________________________________________________________________


	BEGINNING GENETIC ALGORITHM DOCKING 45 of 100
Run: 45 Seed: 2016622229 338156404 [ Run 45 of 100 GA/GALS ]
Beginning LAMARCKIAN GENETIC ALGORITHM (LGA), with a maximum of 2500000 energy evaluations.

Final-Value: -14.478


	FINAL GENETIC ALGORITHM DOCKED STATE
	_______________________________________________


Detailed state:  trans 12.963 -3.364 4.099 quatxyzw -0.358916 -0.670321 -0.567902 0.315177 center 1.619 0.086 0.013 ntor 9 82.5720 80.8275 107.5346 178.7384 160.4796 177.5743 72.8403 -145.4533 -5.4679
State:	 12.963  -3.364   4.099  -0.378 -0.706 -0.598 143.257     82.57   80.83  107.53  178.74  160.48  177.57   72.84 -145.45   -5.47

DOCKED: MODEL       45
DOCKED: USER    Run = 45
DOCKED: USER    DPF = ligand_dock.biased.dpf
DOCKED: USER  
DOCKED: USER    Estimated Free Energy of Binding    =   -9.85 kcal/mol  [=(1)+(2)+(3)-(4)]
DOCKED: USER    Estimated Inhibition Constant, Ki   =   59.75 nM (nanomolar)  [Temperature = 298.15 K]
DOCKED: USER    
DOCKED: USER    (1) Final Intermolecular Energy     =  -12.54 kcal/mol
DOCKED: USER        vdW + Hbond + desolv Energy     =  -12.54 kcal/mol
DOCKED: USER        Electrostatic Energy            =   +0.00 kcal/mol
DOCKED: USER    (2) Final Total Internal Energy     =   -1.94 kcal/mol
DOCKED: USER    (3) Torsional Free Energy           =   +2.68 kcal/mol
DOCKED: USER    (4) Unbound System's Energy  [=(2)] =   -1.94 kcal/mol
DOCKED: USER    
DOCKED: USER    
DOCKED: USER    NEWDPF move ligand.pdbqt
DOCKED: USER    NEWDPF about 1.619000 0.086000 0.013000
DOCKED: USER    NEWDPF tran0 12.962824 -3.364191 4.099433
DOCKED: USER    NEWDPF quaternion0 -0.358916 -0.670321 -0.567902 0.315177
DOCKED: USER    NEWDPF axisangle0 -0.378192 -0.706320 -0.598400 143.257054
DOCKED: USER    NEWDPF quat0 -0.378192 -0.706320 -0.598400 143.257054
DOCKED: USER    NEWDPF dihe0 82.57 80.83 107.53 178.74 160.48 177.57 72.84 -145.45 -5.47 
DOCKED: USER  keepresnum = 1 
DOCKED: USER  
DOCKED: REMARK  Name = 
DOCKED: REMARK  11 active torsions:
DOCKED: REMARK  status: ('A' for Active; 'I' for Inactive)
DOCKED: REMARK    1  A    between atoms: C_2  and  O_3
DOCKED: REMARK    2  A    between atoms: O_3  and  C_4
DOCKED: REMARK    3  A    between atoms: C_4  and  C_5
DOCKED: REMARK    4  A    between atoms: C_10  and  C_11
DOCKED: REMARK    5  A    between atoms: C_11  and  N_12
DOCKED: REMARK    6  A    between atoms: N_12  and  C_13
DOCKED: REMARK    7  A    between atoms: N_12  and  C_15
DOCKED: REMARK    8  A    between atoms: C_13  and  C_14
DOCKED: REMARK    9  A    between atoms: C_15  and  C_16
DOCKED: REMARK   10  A    between atoms: N_21  and  C_22
DOCKED: REMARK   11  A    between atoms: C_25  and  C_26
DOCKED: REMARK                            x       y       z     vdW  Elec       q    Type
DOCKED: REMARK                         _______ _______ _______ _____ _____    ______ ____
DOCKED: USER                              x       y       z     vdW  Elec       q    Type
DOCKED: USER                           _______ _______ _______ _____ _____    ______ ____
DOCKED: ROOT
DOCKED: ATOM      1  C   UNL     1      10.780  -4.351   4.139 -0.25 +0.00    +0.000 C 
DOCKED: ENDROOT
DOCKED: BRANCH   1   2
DOCKED: ATOM      2  C   UNL     1      11.753  -5.492   4.216 -0.15 +0.00    +0.000 A 
DOCKED: ATOM      3  C   UNL     1      11.929  -6.202   5.413 -0.20 +0.00    +0.000 A 
DOCKED: ATOM      4  C   UNL     1      12.849  -7.252   5.485 -0.29 +0.00    +0.000 A 
DOCKED: ATOM      5  C   UNL     1      13.616  -7.597   4.363 -0.26 +0.00    +0.000 A 
DOCKED: ATOM      6  C   UNL     1      14.549  -8.643   4.429 -0.35 +0.00    +0.000 A 
DOCKED: ATOM      7  C   UNL     1      15.340  -8.963   3.314 -0.34 +0.00    +0.000 A 
DOCKED: ATOM      8  C   UNL     1      15.161  -8.254   2.115 -0.24 +0.00    +0.000 A 
DOCKED: ATOM      9  C   UNL     1      14.228  -7.215   2.038 -0.21 +0.00    +0.000 A 
DOCKED: ATOM     10  C   UNL     1      13.455  -6.875   3.157 -0.16 +0.00    +0.000 A 
DOCKED: ATOM     11  C   UNL     1      12.523  -5.828   3.091 -0.09 +0.00    +0.000 A 
DOCKED: BRANCH   7  12
DOCKED: ATOM     12  C   UNL     1      16.332 -10.096   3.389 -0.46 +0.00    +0.000 C 
DOCKED: BRANCH  12  13
DOCKED: ATOM     13  N   UNL     1      15.889 -11.243   2.567 -0.44 +0.00    +0.000 N 
DOCKED: ATOM     14  H   UNL     1      16.076 -12.034   3.185 -0.04 +0.00    +0.000 HD
DOCKED: BRANCH  13  15
DOCKED: ATOM     15  C   UNL     1      14.430 -11.295   2.330 -0.46 +0.00    +0.000 C 
DOCKED: ATOM     16  C   UNL     1      14.040 -12.048   1.056 -0.46 +0.00    +0.000 C 
DOCKED: ENDBRANCH  13  15
DOCKED: BRANCH  13  17
DOCKED: ATOM     17  C   UNL     1      16.731 -11.594   1.395 -0.46 +0.00    +0.000 C 
DOCKED: ATOM     18  C   UNL     1      18.244 -11.483   1.632 -0.54 -0.00    +0.000 C 
DOCKED: ENDBRANCH  13  17
DOCKED: ENDBRANCH  12  13
DOCKED: ENDBRANCH   7  12
DOCKED: ENDBRANCH   1   2
DOCKED: BRANCH   1  19
DOCKED: ATOM     19  O   UNL     1      11.495  -3.121   4.192 -0.58 +0.00    +0.000 OA
DOCKED: BRANCH  19  21
DOCKED: ATOM     20  O   UNL     1      12.941  -2.906   2.407 -0.59 -0.00    +0.000 OA
DOCKED: ATOM     21  C   UNL     1      12.777  -2.967   3.657 -0.28 -0.00    +0.000 C 
DOCKED: ATOM     22  N   UNL     1      13.902  -2.926   4.546 -0.34 -0.00    +0.000 N 
DOCKED: ATOM     23  H   UNL     1      13.739  -3.096   5.503 -0.58 -0.00    +0.000 HD
DOCKED: BRANCH  22  24
DOCKED: ATOM     24  C   UNL     1      15.251  -2.653   4.135 -0.40 -0.00    +0.000 A 
DOCKED: ATOM     25  C   UNL     1      15.480  -1.781   3.060 -0.26 -0.00    +0.000 A 
DOCKED: ATOM     26  C   UNL     1      16.780  -1.518   2.622 -0.34 -0.00    +0.000 A 
DOCKED: ATOM     27  C   UNL     1      17.881  -2.141   3.238 -0.43 -0.00    +0.000 A 
DOCKED: ATOM     28  C   UNL     1      17.649  -3.020   4.311 -0.21 -0.00    +0.000 A 
DOCKED: ATOM     29  C   UNL     1      16.347  -3.282   4.748 -0.46 -0.00    +0.000 A 
DOCKED: BRANCH  27  30
DOCKED: ATOM     30  C   UNL     1      19.270  -1.876   2.786 -0.57 -0.00    +0.000 C 
DOCKED: ATOM     31  N   UNL     1      20.015  -0.756   3.276 -0.52 -0.00    +0.000 N 
DOCKED: ATOM     32  O   UNL     1      21.312  -0.596   2.927 -0.55 -0.00    +0.000 OA
DOCKED: ATOM     33  O   UNL     1      19.806  -2.645   1.941 -0.68 -0.00    +0.000 OA
DOCKED: ATOM     34  H   UNL     1      19.581  -0.100   3.867 -0.33 -0.00    +0.000 HD
DOCKED: ENDBRANCH  27  30
DOCKED: ENDBRANCH  22  24
DOCKED: ENDBRANCH  19  21
DOCKED: ENDBRANCH   1  19
DOCKED: TORSDOF 9
DOCKED: TER
DOCKED: ENDMDL
________________________________________________________________________________


	BEGINNING GENETIC ALGORITHM DOCKING 46 of 100
Run: 46 Seed: 516192753 363078735 [ Run 46 of 100 GA/GALS ]
Beginning LAMARCKIAN GENETIC ALGORITHM (LGA), with a maximum of 2500000 energy evaluations.

Final-Value: -14.941


	FINAL GENETIC ALGORITHM DOCKED STATE
	_______________________________________________


Detailed state:  trans 20.443 -8.426 -5.298 quatxyzw 0.152593 0.543757 -0.550971 0.614390 center 1.619 0.086 0.013 ntor 9 -179.9942 -178.3598 33.5359 -117.6503 122.9301 78.4023 129.8850 -86.2219 -111.5012
State:	 20.443  -8.426  -5.298   0.193  0.689 -0.698 104.185   -179.99 -178.36   33.54 -117.65  122.93   78.40  129.89  -86.22 -111.50

DOCKED: MODEL       46
DOCKED: USER    Run = 46
DOCKED: USER    DPF = ligand_dock.biased.dpf
DOCKED: USER  
DOCKED: USER    Estimated Free Energy of Binding    =  -10.52 kcal/mol  [=(1)+(2)+(3)-(4)]
DOCKED: USER    Estimated Inhibition Constant, Ki   =   19.32 nM (nanomolar)  [Temperature = 298.15 K]
DOCKED: USER    
DOCKED: USER    (1) Final Intermolecular Energy     =  -13.21 kcal/mol
DOCKED: USER        vdW + Hbond + desolv Energy     =  -13.21 kcal/mol
DOCKED: USER        Electrostatic Energy            =   +0.00 kcal/mol
DOCKED: USER    (2) Final Total Internal Energy     =   -1.73 kcal/mol
DOCKED: USER    (3) Torsional Free Energy           =   +2.68 kcal/mol
DOCKED: USER    (4) Unbound System's Energy  [=(2)] =   -1.73 kcal/mol
DOCKED: USER    
DOCKED: USER    
DOCKED: USER    NEWDPF move ligand.pdbqt
DOCKED: USER    NEWDPF about 1.619000 0.086000 0.013000
DOCKED: USER    NEWDPF tran0 20.442759 -8.425921 -5.298237
DOCKED: USER    NEWDPF quaternion0 0.152593 0.543757 -0.550971 0.614390
DOCKED: USER    NEWDPF axisangle0 0.193400 0.689170 -0.698313 104.184765
DOCKED: USER    NEWDPF quat0 0.193400 0.689170 -0.698313 104.184765
DOCKED: USER    NEWDPF dihe0 -179.99 -178.36 33.54 -117.65 122.93 78.40 129.89 -86.22 -111.50 
DOCKED: USER  keepresnum = 1 
DOCKED: USER  
DOCKED: REMARK  Name = 
DOCKED: REMARK  11 active torsions:
DOCKED: REMARK  status: ('A' for Active; 'I' for Inactive)
DOCKED: REMARK    1  A    between atoms: C_2  and  O_3
DOCKED: REMARK    2  A    between atoms: O_3  and  C_4
DOCKED: REMARK    3  A    between atoms: C_4  and  C_5
DOCKED: REMARK    4  A    between atoms: C_10  and  C_11
DOCKED: REMARK    5  A    between atoms: C_11  and  N_12
DOCKED: REMARK    6  A    between atoms: N_12  and  C_13
DOCKED: REMARK    7  A    between atoms: N_12  and  C_15
DOCKED: REMARK    8  A    between atoms: C_13  and  C_14
DOCKED: REMARK    9  A    between atoms: C_15  and  C_16
DOCKED: REMARK   10  A    between atoms: N_21  and  C_22
DOCKED: REMARK   11  A    between atoms: C_25  and  C_26
DOCKED: REMARK                            x       y       z     vdW  Elec       q    Type
DOCKED: REMARK                         _______ _______ _______ _____ _____    ______ ____
DOCKED: USER                              x       y       z     vdW  Elec       q    Type
DOCKED: USER                           _______ _______ _______ _____ _____    ______ ____
DOCKED: ROOT
DOCKED: ATOM      1  C   UNL     1      22.500  -7.271  -5.712 -0.17 -0.00    +0.000 C 
DOCKED: ENDROOT
DOCKED: BRANCH   1   2
DOCKED: ATOM      2  C   UNL     1      22.597  -8.572  -6.456 -0.20 -0.00    +0.000 A 
DOCKED: ATOM      3  C   UNL     1      21.530  -9.482  -6.446 -0.23 -0.00    +0.000 A 
DOCKED: ATOM      4  C   UNL     1      21.632 -10.700  -7.126 -0.29 -0.00    +0.000 A 
DOCKED: ATOM      5  C   UNL     1      22.810 -11.030  -7.812 -0.33 -0.00    +0.000 A 
DOCKED: ATOM      6  C   UNL     1      22.924 -12.254  -8.488 -0.33 -0.00    +0.000 A 
DOCKED: ATOM      7  C   UNL     1      24.118 -12.595  -9.145 -0.38 -0.00    +0.000 A 
DOCKED: ATOM      8  C   UNL     1      25.184 -11.682  -9.156 -0.35 -0.00    +0.000 A 
DOCKED: ATOM      9  C   UNL     1      25.076 -10.456  -8.492 -0.29 -0.00    +0.000 A 
DOCKED: ATOM     10  C   UNL     1      23.895 -10.123  -7.813 -0.27 -0.00    +0.000 A 
DOCKED: ATOM     11  C   UNL     1      23.781  -8.899  -7.136 -0.21 -0.00    +0.000 A 
DOCKED: BRANCH   7  12
DOCKED: ATOM     12  C   UNL     1      24.229 -13.907  -9.879 -0.32 -0.00    +0.000 C 
DOCKED: BRANCH  12  13
DOCKED: ATOM     13  N   UNL     1      23.428 -13.889 -11.122 -0.31 -0.00    +0.000 N 
DOCKED: ATOM     14  H   UNL     1      22.473 -13.937 -10.762 -0.03 +0.00    +0.000 HD
DOCKED: BRANCH  13  15
DOCKED: ATOM     15  C   UNL     1      23.481 -12.609 -11.862 -0.16 -0.00    +0.000 C 
DOCKED: ATOM     16  C   UNL     1      22.186 -11.797 -11.781 -0.16 -0.00    +0.000 C 
DOCKED: ENDBRANCH  13  15
DOCKED: BRANCH  13  17
DOCKED: ATOM     17  C   UNL     1      23.473 -15.109 -11.968 -0.34 +0.00    +0.000 C 
DOCKED: ATOM     18  C   UNL     1      22.129 -15.515 -12.588 -0.28 +0.00    +0.000 C 
DOCKED: ENDBRANCH  13  17
DOCKED: ENDBRANCH  12  13
DOCKED: ENDBRANCH   7  12
DOCKED: ENDBRANCH   1   2
DOCKED: BRANCH   1  19
DOCKED: ATOM     19  O   UNL     1      21.200  -7.151  -5.145 -0.19 -0.00    +0.000 OA
DOCKED: BRANCH  19  21
DOCKED: ATOM     20  O   UNL     1      20.280  -6.825  -3.055 -0.31 -0.00    +0.000 OA
DOCKED: ATOM     21  C   UNL     1      20.895  -7.586  -3.852 -0.33 -0.00    +0.000 C 
DOCKED: ATOM     22  N   UNL     1      21.332  -8.887  -3.434 -0.40 -0.00    +0.000 N 
DOCKED: ATOM     23  H   UNL     1      21.910  -9.397  -4.047 -0.03 -0.00    +0.000 HD
DOCKED: BRANCH  22  24
DOCKED: ATOM     24  C   UNL     1      20.981  -9.496  -2.181 -0.50 -0.00    +0.000 A 
DOCKED: ATOM     25  C   UNL     1      21.460  -8.938  -0.987 -0.42 -0.00    +0.000 A 
DOCKED: ATOM     26  C   UNL     1      21.156  -9.525   0.245 -0.45 -0.00    +0.000 A 
DOCKED: ATOM     27  C   UNL     1      20.382 -10.698   0.305 -0.59 -0.00    +0.000 A 
DOCKED: ATOM     28  C   UNL     1      19.908 -11.260  -0.895 -0.27 -0.00    +0.000 A 
DOCKED: ATOM     29  C   UNL     1      20.213 -10.671  -2.125 -0.41 -0.00    +0.000 A 
DOCKED: BRANCH  27  30
DOCKED: ATOM     30  C   UNL     1      20.050 -11.338   1.603 -0.74 -0.00    +0.000 C 
DOCKED: ATOM     31  N   UNL     1      20.295 -10.674   2.847 -0.67 -0.00    +0.000 N 
DOCKED: ATOM     32  O   UNL     1      19.890 -11.235   4.009 -1.11 -0.00    +0.000 OA
DOCKED: ATOM     33  O   UNL     1      19.555 -12.498   1.615 -1.57 -0.00    +0.000 OA
DOCKED: ATOM     34  H   UNL     1      20.760  -9.807   2.857 -0.58 -0.00    +0.000 HD
DOCKED: ENDBRANCH  27  30
DOCKED: ENDBRANCH  22  24
DOCKED: ENDBRANCH  19  21
DOCKED: ENDBRANCH   1  19
DOCKED: TORSDOF 9
DOCKED: TER
DOCKED: ENDMDL
________________________________________________________________________________


	BEGINNING GENETIC ALGORITHM DOCKING 47 of 100
Run: 47 Seed: 487167469 1201641859 [ Run 47 of 100 GA/GALS ]
Beginning LAMARCKIAN GENETIC ALGORITHM (LGA), with a maximum of 2500000 energy evaluations.

Final-Value: -15.560


	FINAL GENETIC ALGORITHM DOCKED STATE
	_______________________________________________


Detailed state:  trans 18.984 -9.645 2.028 quatxyzw -0.115672 -0.638888 -0.330325 -0.685075 center 1.619 0.086 0.013 ntor 9 -170.4389 -51.0822 -15.5950 -179.9217 158.5159 64.1925 -139.5311 -117.5590 -15.6554
State:	 18.984  -9.645   2.028  -0.159 -0.877 -0.453 -93.517   -170.44  -51.08  -15.60 -179.92  158.52   64.19 -139.53 -117.56  -15.66

DOCKED: MODEL       47
DOCKED: USER    Run = 47
DOCKED: USER    DPF = ligand_dock.biased.dpf
DOCKED: USER  
DOCKED: USER    Estimated Free Energy of Binding    =  -10.79 kcal/mol  [=(1)+(2)+(3)-(4)]
DOCKED: USER    Estimated Inhibition Constant, Ki   =   12.41 nM (nanomolar)  [Temperature = 298.15 K]
DOCKED: USER    
DOCKED: USER    (1) Final Intermolecular Energy     =  -13.47 kcal/mol
DOCKED: USER        vdW + Hbond + desolv Energy     =  -13.47 kcal/mol
DOCKED: USER        Electrostatic Energy            =   +0.00 kcal/mol
DOCKED: USER    (2) Final Total Internal Energy     =   -2.09 kcal/mol
DOCKED: USER    (3) Torsional Free Energy           =   +2.68 kcal/mol
DOCKED: USER    (4) Unbound System's Energy  [=(2)] =   -2.09 kcal/mol
DOCKED: USER    
DOCKED: USER    
DOCKED: USER    NEWDPF move ligand.pdbqt
DOCKED: USER    NEWDPF about 1.619000 0.086000 0.013000
DOCKED: USER    NEWDPF tran0 18.983612 -9.644532 2.028039
DOCKED: USER    NEWDPF quaternion0 -0.115672 -0.638888 -0.330325 -0.685075
DOCKED: USER    NEWDPF axisangle0 -0.158787 -0.877024 -0.453448 -93.517029
DOCKED: USER    NEWDPF quat0 -0.158787 -0.877024 -0.453448 -93.517029
DOCKED: USER    NEWDPF dihe0 -170.44 -51.08 -15.60 -179.92 158.52 64.19 -139.53 -117.56 -15.66 
DOCKED: USER  keepresnum = 1 
DOCKED: USER  
DOCKED: REMARK  Name = 
DOCKED: REMARK  11 active torsions:
DOCKED: REMARK  status: ('A' for Active; 'I' for Inactive)
DOCKED: REMARK    1  A    between atoms: C_2  and  O_3
DOCKED: REMARK    2  A    between atoms: O_3  and  C_4
DOCKED: REMARK    3  A    between atoms: C_4  and  C_5
DOCKED: REMARK    4  A    between atoms: C_10  and  C_11
DOCKED: REMARK    5  A    between atoms: C_11  and  N_12
DOCKED: REMARK    6  A    between atoms: N_12  and  C_13
DOCKED: REMARK    7  A    between atoms: N_12  and  C_15
DOCKED: REMARK    8  A    between atoms: C_13  and  C_14
DOCKED: REMARK    9  A    between atoms: C_15  and  C_16
DOCKED: REMARK   10  A    between atoms: N_21  and  C_22
DOCKED: REMARK   11  A    between atoms: C_25  and  C_26
DOCKED: REMARK                            x       y       z     vdW  Elec       q    Type
DOCKED: REMARK                         _______ _______ _______ _____ _____    ______ ____
DOCKED: USER                              x       y       z     vdW  Elec       q    Type
DOCKED: USER                           _______ _______ _______ _____ _____    ______ ____
DOCKED: ROOT
DOCKED: ATOM      1  C   UNL     1      20.650 -11.362   1.915 -0.74 -0.00    +0.000 C 
DOCKED: ENDROOT
DOCKED: BRANCH   1   2
DOCKED: ATOM      2  C   UNL     1      20.605 -10.737   0.550 -0.62 -0.00    +0.000 A 
DOCKED: ATOM      3  C   UNL     1      21.529  -9.747   0.187 -0.50 -0.00    +0.000 A 
DOCKED: ATOM      4  C   UNL     1      21.472  -9.155  -1.079 -0.45 -0.00    +0.000 A 
DOCKED: ATOM      5  C   UNL     1      20.479  -9.536  -1.992 -0.44 -0.00    +0.000 A 
DOCKED: ATOM      6  C   UNL     1      20.408  -8.941  -3.261 -0.35 -0.00    +0.000 A 
DOCKED: ATOM      7  C   UNL     1      19.391  -9.300  -4.160 -0.25 -0.00    +0.000 A 
DOCKED: ATOM      8  C   UNL     1      18.468 -10.294  -3.796 -0.28 -0.00    +0.000 A 
DOCKED: ATOM      9  C   UNL     1      18.536 -10.898  -2.537 -0.22 -0.00    +0.000 A 
DOCKED: ATOM     10  C   UNL     1      19.534 -10.523  -1.626 -0.41 -0.00    +0.000 A 
DOCKED: ATOM     11  C   UNL     1      19.604 -11.118  -0.358 -0.48 -0.00    +0.000 A 
DOCKED: BRANCH   7  12
DOCKED: ATOM     12  C   UNL     1      19.328  -8.664  -5.526 -0.17 -0.00    +0.000 C 
DOCKED: BRANCH  12  13
DOCKED: ATOM     13  N   UNL     1      19.733  -9.624  -6.576 -0.18 -0.00    +0.000 N 
DOCKED: ATOM     14  H   UNL     1      20.359  -9.060  -7.152 +0.01 -0.00    +0.000 HD
DOCKED: BRANCH  13  15
DOCKED: ATOM     15  C   UNL     1      20.576 -10.738  -6.092 -0.38 -0.00    +0.000 C 
DOCKED: ATOM     16  C   UNL     1      22.073 -10.524  -6.326 -0.40 -0.00    +0.000 C 
DOCKED: ENDBRANCH  13  15
DOCKED: BRANCH  13  17
DOCKED: ATOM     17  C   UNL     1      18.698 -10.003  -7.573 -0.23 -0.00    +0.000 C 
DOCKED: ATOM     18  C   UNL     1      17.895 -11.263  -7.221 -0.37 -0.00    +0.000 C 
DOCKED: ENDBRANCH  13  17
DOCKED: ENDBRANCH  12  13
DOCKED: ENDBRANCH   7  12
DOCKED: ENDBRANCH   1   2
DOCKED: BRANCH   1  19
DOCKED: ATOM     19  O   UNL     1      19.791 -10.640   2.790 -0.87 -0.00    +0.000 OA
DOCKED: BRANCH  19  21
DOCKED: ATOM     20  O   UNL     1      17.842  -9.405   2.767 -0.55 -0.00    +0.000 OA
DOCKED: ATOM     21  C   UNL     1      18.417 -10.511   2.567 -0.58 -0.00    +0.000 C 
DOCKED: ATOM     22  N   UNL     1      17.668 -11.662   2.153 -0.38 +0.00    +0.000 N 
DOCKED: ATOM     23  H   UNL     1      18.135 -12.528   2.124 -0.01 +0.00    +0.000 HD
DOCKED: BRANCH  22  24
DOCKED: ATOM     24  C   UNL     1      16.281 -11.634   1.776 -0.39 +0.00    +0.000 A 
DOCKED: ATOM     25  C   UNL     1      15.296 -11.636   2.775 -0.46 +0.00    +0.000 A 
DOCKED: ATOM     26  C   UNL     1      13.941 -11.636   2.437 -0.38 +0.00    +0.000 A 
DOCKED: ATOM     27  C   UNL     1      13.541 -11.657   1.088 -0.40 +0.00    +0.000 A 
DOCKED: ATOM     28  C   UNL     1      14.531 -11.661   0.088 -0.38 +0.00    +0.000 A 
DOCKED: ATOM     29  C   UNL     1      15.886 -11.660   0.428 -0.38 +0.00    +0.000 A 
DOCKED: BRANCH  27  30
DOCKED: ATOM     30  C   UNL     1      12.106 -11.659   0.708 -0.42 +0.00    +0.000 C 
DOCKED: ATOM     31  N   UNL     1      11.136 -12.397   1.460 -0.45 +0.00    +0.000 N 
DOCKED: ATOM     32  O   UNL     1       9.822 -12.300   1.155 -0.50 +0.00    +0.000 OA
DOCKED: ATOM     33  O   UNL     1      11.730 -11.011  -0.306 -0.35 +0.00    +0.000 OA
DOCKED: ATOM     34  H   UNL     1      11.427 -12.976   2.201 -0.53 +0.00    +0.000 HD
DOCKED: ENDBRANCH  27  30
DOCKED: ENDBRANCH  22  24
DOCKED: ENDBRANCH  19  21
DOCKED: ENDBRANCH   1  19
DOCKED: TORSDOF 9
DOCKED: TER
DOCKED: ENDMDL
________________________________________________________________________________


	BEGINNING GENETIC ALGORITHM DOCKING 48 of 100
Run: 48 Seed: 2073042476 381215144 [ Run 48 of 100 GA/GALS ]
Beginning LAMARCKIAN GENETIC ALGORITHM (LGA), with a maximum of 2500000 energy evaluations.

Final-Value: -15.583


	FINAL GENETIC ALGORITHM DOCKED STATE
	_______________________________________________


Detailed state:  trans 20.309 -7.929 -4.254 quatxyzw 0.619148 -0.011573 -0.621733 -0.479552 center 1.619 0.086 0.013 ntor 9 -175.1988 -81.9815 -125.5093 122.2606 110.8059 40.8324 -99.7965 130.6380 -34.5058
State:	 20.309  -7.929  -4.254   0.706 -0.013 -0.709 -122.688   -175.20  -81.98 -125.51  122.26  110.81   40.83  -99.80  130.64  -34.51

DOCKED: MODEL       48
DOCKED: USER    Run = 48
DOCKED: USER    DPF = ligand_dock.biased.dpf
DOCKED: USER  
DOCKED: USER    Estimated Free Energy of Binding    =  -10.95 kcal/mol  [=(1)+(2)+(3)-(4)]
DOCKED: USER    Estimated Inhibition Constant, Ki   =    9.33 nM (nanomolar)  [Temperature = 298.15 K]
DOCKED: USER    
DOCKED: USER    (1) Final Intermolecular Energy     =  -13.64 kcal/mol
DOCKED: USER        vdW + Hbond + desolv Energy     =  -13.64 kcal/mol
DOCKED: USER        Electrostatic Energy            =   +0.00 kcal/mol
DOCKED: USER    (2) Final Total Internal Energy     =   -1.94 kcal/mol
DOCKED: USER    (3) Torsional Free Energy           =   +2.68 kcal/mol
DOCKED: USER    (4) Unbound System's Energy  [=(2)] =   -1.94 kcal/mol
DOCKED: USER    
DOCKED: USER    
DOCKED: USER    NEWDPF move ligand.pdbqt
DOCKED: USER    NEWDPF about 1.619000 0.086000 0.013000
DOCKED: USER    NEWDPF tran0 20.309289 -7.929054 -4.254177
DOCKED: USER    NEWDPF quaternion0 0.619148 -0.011573 -0.621733 -0.479552
DOCKED: USER    NEWDPF axisangle0 0.705571 -0.013189 -0.708516 -122.687751
DOCKED: USER    NEWDPF quat0 0.705571 -0.013189 -0.708516 -122.687751
DOCKED: USER    NEWDPF dihe0 -175.20 -81.98 -125.51 122.26 110.81 40.83 -99.80 130.64 -34.51 
DOCKED: USER  keepresnum = 1 
DOCKED: USER  
DOCKED: REMARK  Name = 
DOCKED: REMARK  11 active torsions:
DOCKED: REMARK  status: ('A' for Active; 'I' for Inactive)
DOCKED: REMARK    1  A    between atoms: C_2  and  O_3
DOCKED: REMARK    2  A    between atoms: O_3  and  C_4
DOCKED: REMARK    3  A    between atoms: C_4  and  C_5
DOCKED: REMARK    4  A    between atoms: C_10  and  C_11
DOCKED: REMARK    5  A    between atoms: C_11  and  N_12
DOCKED: REMARK    6  A    between atoms: N_12  and  C_13
DOCKED: REMARK    7  A    between atoms: N_12  and  C_15
DOCKED: REMARK    8  A    between atoms: C_13  and  C_14
DOCKED: REMARK    9  A    between atoms: C_15  and  C_16
DOCKED: REMARK   10  A    between atoms: N_21  and  C_22
DOCKED: REMARK   11  A    between atoms: C_25  and  C_26
DOCKED: REMARK                            x       y       z     vdW  Elec       q    Type
DOCKED: REMARK                         _______ _______ _______ _____ _____    ______ ____
DOCKED: USER                              x       y       z     vdW  Elec       q    Type
DOCKED: USER                           _______ _______ _______ _____ _____    ______ ____
DOCKED: ROOT
DOCKED: ATOM      1  C   UNL     1      22.033  -6.612  -5.271 -0.19 -0.00    +0.000 C 
DOCKED: ENDROOT
DOCKED: BRANCH   1   2
DOCKED: ATOM      2  C   UNL     1      21.601  -5.857  -4.047 -0.22 -0.00    +0.000 A 
DOCKED: ATOM      3  C   UNL     1      22.049  -6.241  -2.775 -0.14 -0.00    +0.000 A 
DOCKED: ATOM      4  C   UNL     1      21.630  -5.546  -1.636 -0.33 +0.00    +0.000 A 
DOCKED: ATOM      5  C   UNL     1      20.744  -4.465  -1.755 -0.37 -0.00    +0.000 A 
DOCKED: ATOM      6  C   UNL     1      20.311  -3.767  -0.618 -0.39 +0.00    +0.000 A 
DOCKED: ATOM      7  C   UNL     1      19.397  -2.708  -0.738 -0.23 -0.00    +0.000 A 
DOCKED: ATOM      8  C   UNL     1      18.952  -2.322  -2.013 -0.14 -0.00    +0.000 A 
DOCKED: ATOM      9  C   UNL     1      19.385  -3.006  -3.152 -0.13 -0.00    +0.000 A 
DOCKED: ATOM     10  C   UNL     1      20.277  -4.082  -3.035 -0.20 -0.00    +0.000 A 
DOCKED: ATOM     11  C   UNL     1      20.709  -4.780  -4.172 -0.15 -0.00    +0.000 A 
DOCKED: BRANCH   7  12
DOCKED: ATOM     12  C   UNL     1      18.945  -1.956   0.488 -0.30 -0.00    +0.000 C 
DOCKED: BRANCH  12  13
DOCKED: ATOM     13  N   UNL     1      20.093  -1.331   1.180 -0.29 -0.00    +0.000 N 
DOCKED: ATOM     14  H   UNL     1      19.631  -0.698   1.834 +0.00 -0.00    +0.000 HD
DOCKED: BRANCH  13  15
DOCKED: ATOM     15  C   UNL     1      20.862  -2.255   2.040 -0.60 -0.00    +0.000 C 
DOCKED: ATOM     16  C   UNL     1      20.571  -2.094   3.534 -0.80 -0.00    +0.000 C 
DOCKED: ENDBRANCH  13  15
DOCKED: BRANCH  13  17
DOCKED: ATOM     17  C   UNL     1      20.912  -0.374   0.392 -0.21 -0.00    +0.000 C 
DOCKED: ATOM     18  C   UNL     1      22.406  -0.717   0.312 -0.28 -0.00    +0.000 C 
DOCKED: ENDBRANCH  13  17
DOCKED: ENDBRANCH  12  13
DOCKED: ENDBRANCH   7  12
DOCKED: ENDBRANCH   1   2
DOCKED: BRANCH   1  19
DOCKED: ATOM     19  O   UNL     1      21.359  -7.866  -5.311 -0.22 -0.00    +0.000 OA
DOCKED: BRANCH  19  21
DOCKED: ATOM     20  O   UNL     1      22.136  -9.729  -4.195 -0.41 -0.00    +0.000 OA
DOCKED: ATOM     21  C   UNL     1      21.341  -8.750  -4.229 -0.37 -0.00    +0.000 C 
DOCKED: ATOM     22  N   UNL     1      20.375  -8.554  -3.186 -0.33 -0.00    +0.000 N 
DOCKED: ATOM     23  H   UNL     1      19.698  -7.850  -3.312 -0.02 -0.00    +0.000 HD
DOCKED: BRANCH  22  24
DOCKED: ATOM     24  C   UNL     1      20.331  -9.317  -1.968 -0.33 -0.00    +0.000 A 
DOCKED: ATOM     25  C   UNL     1      19.352 -10.309  -1.813 -0.33 -0.00    +0.000 A 
DOCKED: ATOM     26  C   UNL     1      19.269 -11.047  -0.630 -0.45 -0.00    +0.000 A 
DOCKED: ATOM     27  C   UNL     1      20.154 -10.791   0.435 -0.58 -0.00    +0.000 A 
DOCKED: ATOM     28  C   UNL     1      21.130  -9.791   0.279 -0.57 -0.00    +0.000 A 
DOCKED: ATOM     29  C   UNL     1      21.211  -9.054  -0.906 -0.53 -0.00    +0.000 A 
DOCKED: BRANCH  27  30
DOCKED: ATOM     30  C   UNL     1      20.080 -11.563   1.701 -0.76 -0.00    +0.000 C 
DOCKED: ATOM     31  N   UNL     1      20.418 -10.968   2.959 -0.68 -0.00    +0.000 N 
DOCKED: ATOM     32  O   UNL     1      20.244 -11.661   4.107 -1.14 -0.00    +0.000 OA
DOCKED: ATOM     33  O   UNL     1      19.726 -12.774   1.671 -1.52 -0.00    +0.000 OA
DOCKED: ATOM     34  H   UNL     1      20.778 -10.053   2.987 -0.46 -0.00    +0.000 HD
DOCKED: ENDBRANCH  27  30
DOCKED: ENDBRANCH  22  24
DOCKED: ENDBRANCH  19  21
DOCKED: ENDBRANCH   1  19
DOCKED: TORSDOF 9
DOCKED: TER
DOCKED: ENDMDL
________________________________________________________________________________


	BEGINNING GENETIC ALGORITHM DOCKING 49 of 100
Run: 49 Seed: 588067927 1018436948 [ Run 49 of 100 GA/GALS ]
Beginning LAMARCKIAN GENETIC ALGORITHM (LGA), with a maximum of 2500000 energy evaluations.

Final-Value: -15.250


	FINAL GENETIC ALGORITHM DOCKED STATE
	_______________________________________________


Detailed state:  trans 18.987 -10.271 2.036 quatxyzw 0.082678 0.587022 0.261635 0.761654 center 1.619 0.086 0.013 ntor 9 -138.3142 -71.4633 -180.0000 157.7870 -8.0153 -91.2896 -158.9056 -125.8029 163.3150
State:	 18.987 -10.271   2.036   0.128  0.906  0.404 80.780   -138.31  -71.46 -180.00  157.79   -8.02  -91.29 -158.91 -125.80  163.32

DOCKED: MODEL       49
DOCKED: USER    Run = 49
DOCKED: USER    DPF = ligand_dock.biased.dpf
DOCKED: USER  
DOCKED: USER    Estimated Free Energy of Binding    =  -10.71 kcal/mol  [=(1)+(2)+(3)-(4)]
DOCKED: USER    Estimated Inhibition Constant, Ki   =   13.99 nM (nanomolar)  [Temperature = 298.15 K]
DOCKED: USER    
DOCKED: USER    (1) Final Intermolecular Energy     =  -13.40 kcal/mol
DOCKED: USER        vdW + Hbond + desolv Energy     =  -13.40 kcal/mol
DOCKED: USER        Electrostatic Energy            =   +0.00 kcal/mol
DOCKED: USER    (2) Final Total Internal Energy     =   -1.85 kcal/mol
DOCKED: USER    (3) Torsional Free Energy           =   +2.68 kcal/mol
DOCKED: USER    (4) Unbound System's Energy  [=(2)] =   -1.85 kcal/mol
DOCKED: USER    
DOCKED: USER    
DOCKED: USER    NEWDPF move ligand.pdbqt
DOCKED: USER    NEWDPF about 1.619000 0.086000 0.013000
DOCKED: USER    NEWDPF tran0 18.986871 -10.271052 2.035626
DOCKED: USER    NEWDPF quaternion0 0.082678 0.587022 0.261635 0.761654
DOCKED: USER    NEWDPF axisangle0 0.127592 0.905920 0.403769 80.779523
DOCKED: USER    NEWDPF quat0 0.127592 0.905920 0.403769 80.779523
DOCKED: USER    NEWDPF dihe0 -138.31 -71.46 -180.00 157.79 -8.02 -91.29 -158.91 -125.80 163.32 
DOCKED: USER  keepresnum = 1 
DOCKED: USER  
DOCKED: REMARK  Name = 
DOCKED: REMARK  11 active torsions:
DOCKED: REMARK  status: ('A' for Active; 'I' for Inactive)
DOCKED: REMARK    1  A    between atoms: C_2  and  O_3
DOCKED: REMARK    2  A    between atoms: O_3  and  C_4
DOCKED: REMARK    3  A    between atoms: C_4  and  C_5
DOCKED: REMARK    4  A    between atoms: C_10  and  C_11
DOCKED: REMARK    5  A    between atoms: C_11  and  N_12
DOCKED: REMARK    6  A    between atoms: N_12  and  C_13
DOCKED: REMARK    7  A    between atoms: N_12  and  C_15
DOCKED: REMARK    8  A    between atoms: C_13  and  C_14
DOCKED: REMARK    9  A    between atoms: C_15  and  C_16
DOCKED: REMARK   10  A    between atoms: N_21  and  C_22
DOCKED: REMARK   11  A    between atoms: C_25  and  C_26
DOCKED: REMARK                            x       y       z     vdW  Elec       q    Type
DOCKED: REMARK                         _______ _______ _______ _____ _____    ______ ____
DOCKED: USER                              x       y       z     vdW  Elec       q    Type
DOCKED: USER                           _______ _______ _______ _____ _____    ______ ____
DOCKED: ROOT
DOCKED: ATOM      1  C   UNL     1      20.884 -11.672   1.615 -0.67 -0.00    +0.000 C 
DOCKED: ENDROOT
DOCKED: BRANCH   1   2
DOCKED: ATOM      2  C   UNL     1      20.510 -11.071   0.290 -0.58 -0.00    +0.000 A 
DOCKED: ATOM      3  C   UNL     1      19.500 -11.646  -0.495 -0.29 -0.00    +0.000 A 
DOCKED: ATOM      4  C   UNL     1      19.168 -11.094  -1.736 -0.36 -0.00    +0.000 A 
DOCKED: ATOM      5  C   UNL     1      19.852  -9.966  -2.213 -0.37 -0.00    +0.000 A 
DOCKED: ATOM      6  C   UNL     1      19.531  -9.411  -3.461 -0.28 -0.00    +0.000 A 
DOCKED: ATOM      7  C   UNL     1      20.242  -8.303  -3.951 -0.27 -0.00    +0.000 A 
DOCKED: ATOM      8  C   UNL     1      21.250  -7.726  -3.161 -0.36 -0.00    +0.000 A 
DOCKED: ATOM      9  C   UNL     1      21.570  -8.268  -1.913 -0.31 -0.00    +0.000 A 
DOCKED: ATOM     10  C   UNL     1      20.881  -9.390  -1.432 -0.53 -0.00    +0.000 A 
DOCKED: ATOM     11  C   UNL     1      21.202  -9.946  -0.184 -0.62 -0.00    +0.000 A 
DOCKED: BRANCH   7  12
DOCKED: ATOM     12  C   UNL     1      19.884  -7.705  -5.288 -0.17 -0.00    +0.000 C 
DOCKED: BRANCH  12  13
DOCKED: ATOM     13  N   UNL     1      20.013  -8.707  -6.368 -0.12 -0.00    +0.000 N 
DOCKED: ATOM     14  H   UNL     1      20.138  -8.118  -7.192 +0.00 -0.00    +0.000 HD
DOCKED: BRANCH  13  15
DOCKED: ATOM     15  C   UNL     1      21.246  -9.519  -6.301 -0.27 -0.00    +0.000 C 
DOCKED: ATOM     16  C   UNL     1      22.527  -8.713  -6.535 -0.24 -0.00    +0.000 C 
DOCKED: ENDBRANCH  13  15
DOCKED: BRANCH  13  17
DOCKED: ATOM     17  C   UNL     1      18.784  -9.455  -6.739 -0.17 -0.00    +0.000 C 
DOCKED: ATOM     18  C   UNL     1      18.818 -10.954  -6.409 -0.37 -0.00    +0.000 C 
DOCKED: ENDBRANCH  13  17
DOCKED: ENDBRANCH  12  13
DOCKED: ENDBRANCH   7  12
DOCKED: ENDBRANCH   1   2
DOCKED: BRANCH   1  19
DOCKED: ATOM     19  O   UNL     1      20.067 -11.107   2.634 -1.22 -0.00    +0.000 OA
DOCKED: BRANCH  19  21
DOCKED: ATOM     20  O   UNL     1      18.017 -10.232   3.230 -0.53 -0.00    +0.000 OA
DOCKED: ATOM     21  C   UNL     1      18.672 -11.073   2.555 -0.60 -0.00    +0.000 C 
DOCKED: ATOM     22  N   UNL     1      17.998 -12.037   1.733 -0.44 +0.00    +0.000 N 
DOCKED: ATOM     23  H   UNL     1      18.540 -12.748   1.320 -0.13 -0.00    +0.000 HD
DOCKED: BRANCH  22  24
DOCKED: ATOM     24  C   UNL     1      16.584 -12.033   1.473 -0.37 +0.00    +0.000 A 
DOCKED: ATOM     25  C   UNL     1      16.129 -11.995   0.148 -0.42 +0.00    +0.000 A 
DOCKED: ATOM     26  C   UNL     1      14.761 -11.964  -0.134 -0.41 +0.00    +0.000 A 
DOCKED: ATOM     27  C   UNL     1      13.817 -11.949   0.910 -0.41 +0.00    +0.000 A 
DOCKED: ATOM     28  C   UNL     1      14.277 -11.981   2.239 -0.38 +0.00    +0.000 A 
DOCKED: ATOM     29  C   UNL     1      15.646 -12.012   2.518 -0.30 +0.00    +0.000 A 
DOCKED: BRANCH  27  30
DOCKED: ATOM     30  C   UNL     1      12.359 -11.914   0.632 -0.35 +0.00    +0.000 C 
DOCKED: ATOM     31  N   UNL     1      11.403 -12.362   1.599 -0.44 +0.00    +0.000 N 
DOCKED: ATOM     32  O   UNL     1      10.079 -12.224   1.361 -0.52 +0.00    +0.000 OA
DOCKED: ATOM     33  O   UNL     1      11.950 -11.494  -0.485 -0.35 +0.00    +0.000 OA
DOCKED: ATOM     34  H   UNL     1      11.711 -12.773   2.439 -0.58 +0.00    +0.000 HD
DOCKED: ENDBRANCH  27  30
DOCKED: ENDBRANCH  22  24
DOCKED: ENDBRANCH  19  21
DOCKED: ENDBRANCH   1  19
DOCKED: TORSDOF 9
DOCKED: TER
DOCKED: ENDMDL
________________________________________________________________________________


	BEGINNING GENETIC ALGORITHM DOCKING 50 of 100
Run: 50 Seed: 1475313565 2061841163 [ Run 50 of 100 GA/GALS ]
Beginning LAMARCKIAN GENETIC ALGORITHM (LGA), with a maximum of 2500000 energy evaluations.

Final-Value: -14.180


	FINAL GENETIC ALGORITHM DOCKED STATE
	_______________________________________________


Detailed state:  trans 20.341 -8.729 -0.090 quatxyzw -0.738078 0.091485 0.251296 -0.619452 center 1.619 0.086 0.013 ntor 9 -160.2254 50.5011 -156.7867 175.9694 145.9578 -135.2066 -171.5219 84.7922 141.7118
State:	 20.341  -8.729  -0.090  -0.940  0.117  0.320 -103.448   -160.23   50.50 -156.79  175.97  145.96 -135.21 -171.52   84.79  141.71

DOCKED: MODEL       50
DOCKED: USER    Run = 50
DOCKED: USER    DPF = ligand_dock.biased.dpf
DOCKED: USER  
DOCKED: USER    Estimated Free Energy of Binding    =   -9.71 kcal/mol  [=(1)+(2)+(3)-(4)]
DOCKED: USER    Estimated Inhibition Constant, Ki   =   76.30 nM (nanomolar)  [Temperature = 298.15 K]
DOCKED: USER    
DOCKED: USER    (1) Final Intermolecular Energy     =  -12.39 kcal/mol
DOCKED: USER        vdW + Hbond + desolv Energy     =  -12.39 kcal/mol
DOCKED: USER        Electrostatic Energy            =   +0.00 kcal/mol
DOCKED: USER    (2) Final Total Internal Energy     =   -1.79 kcal/mol
DOCKED: USER    (3) Torsional Free Energy           =   +2.68 kcal/mol
DOCKED: USER    (4) Unbound System's Energy  [=(2)] =   -1.79 kcal/mol
DOCKED: USER    
DOCKED: USER    
DOCKED: USER    NEWDPF move ligand.pdbqt
DOCKED: USER    NEWDPF about 1.619000 0.086000 0.013000
DOCKED: USER    NEWDPF tran0 20.340737 -8.729106 -0.090116
DOCKED: USER    NEWDPF quaternion0 -0.738078 0.091485 0.251296 -0.619452
DOCKED: USER    NEWDPF axisangle0 -0.940186 0.116537 0.320109 -103.447690
DOCKED: USER    NEWDPF quat0 -0.940186 0.116537 0.320109 -103.447690
DOCKED: USER    NEWDPF dihe0 -160.23 50.50 -156.79 175.97 145.96 -135.21 -171.52 84.79 141.71 
DOCKED: USER  keepresnum = 1 
DOCKED: USER  
DOCKED: REMARK  Name = 
DOCKED: REMARK  11 active torsions:
DOCKED: REMARK  status: ('A' for Active; 'I' for Inactive)
DOCKED: REMARK    1  A    between atoms: C_2  and  O_3
DOCKED: REMARK    2  A    between atoms: O_3  and  C_4
DOCKED: REMARK    3  A    between atoms: C_4  and  C_5
DOCKED: REMARK    4  A    between atoms: C_10  and  C_11
DOCKED: REMARK    5  A    between atoms: C_11  and  N_12
DOCKED: REMARK    6  A    between atoms: N_12  and  C_13
DOCKED: REMARK    7  A    between atoms: N_12  and  C_15
DOCKED: REMARK    8  A    between atoms: C_13  and  C_14
DOCKED: REMARK    9  A    between atoms: C_15  and  C_16
DOCKED: REMARK   10  A    between atoms: N_21  and  C_22
DOCKED: REMARK   11  A    between atoms: C_25  and  C_26
DOCKED: REMARK                            x       y       z     vdW  Elec       q    Type
DOCKED: REMARK                         _______ _______ _______ _____ _____    ______ ____
DOCKED: USER                              x       y       z     vdW  Elec       q    Type
DOCKED: USER                           _______ _______ _______ _____ _____    ______ ____
DOCKED: ROOT
DOCKED: ATOM      1  C   UNL     1      21.397 -10.849   0.269 -0.58 -0.00    +0.000 C 
DOCKED: ENDROOT
DOCKED: BRANCH   1   2
DOCKED: ATOM      2  C   UNL     1      20.037 -10.952   0.896 -0.60 -0.00    +0.000 A 
DOCKED: ATOM      3  C   UNL     1      19.888 -10.912   2.290 -0.64 -0.00    +0.000 A 
DOCKED: ATOM      4  C   UNL     1      18.621 -11.026   2.870 -0.51 -0.00    +0.000 A 
DOCKED: ATOM      5  C   UNL     1      17.487 -11.196   2.063 -0.41 +0.00    +0.000 A 
DOCKED: ATOM      6  C   UNL     1      16.213 -11.321   2.636 -0.39 +0.00    +0.000 A 
DOCKED: ATOM      7  C   UNL     1      15.084 -11.526   1.826 -0.41 +0.00    +0.000 A 
DOCKED: ATOM      8  C   UNL     1      15.235 -11.562   0.431 -0.36 +0.00    +0.000 A 
DOCKED: ATOM      9  C   UNL     1      16.500 -11.430  -0.150 -0.35 +0.00    +0.000 A 
DOCKED: ATOM     10  C   UNL     1      17.632 -11.252   0.656 -0.40 -0.00    +0.000 A 
DOCKED: ATOM     11  C   UNL     1      18.906 -11.128   0.082 -0.46 -0.00    +0.000 A 
DOCKED: BRANCH   7  12
DOCKED: ATOM     12  C   UNL     1      13.717 -11.648   2.449 -0.37 +0.00    +0.000 C 
DOCKED: BRANCH  12  13
DOCKED: ATOM     13  N   UNL     1      13.018 -10.344   2.454 -0.27 +0.00    +0.000 N 
DOCKED: ATOM     14  H   UNL     1      12.579 -10.339   3.375 -0.01 +0.00    +0.000 HD
DOCKED: BRANCH  13  15
DOCKED: ATOM     15  C   UNL     1      13.918  -9.171   2.465 -0.26 +0.00    +0.000 C 
DOCKED: ATOM     16  C   UNL     1      14.324  -8.720   3.870 -0.36 +0.00    +0.000 C 
DOCKED: ENDBRANCH  13  15
DOCKED: BRANCH  13  17
DOCKED: ATOM     17  C   UNL     1      11.828 -10.218   1.573 -0.25 +0.00    +0.000 C 
DOCKED: ATOM     18  C   UNL     1      11.356 -11.532   0.935 -0.42 +0.00    +0.000 C 
DOCKED: ENDBRANCH  13  17
DOCKED: ENDBRANCH  12  13
DOCKED: ENDBRANCH   7  12
DOCKED: ENDBRANCH   1   2
DOCKED: BRANCH   1  19
DOCKED: ATOM     19  O   UNL     1      21.512  -9.598  -0.400 -0.73 -0.00    +0.000 OA
DOCKED: BRANCH  19  21
DOCKED: ATOM     20  O   UNL     1      21.584  -8.365  -2.349 -0.53 -0.00    +0.000 OA
DOCKED: ATOM     21  C   UNL     1      21.298  -9.452  -1.774 -0.58 -0.00    +0.000 C 
DOCKED: ATOM     22  N   UNL     1      20.708 -10.534  -2.506 -0.50 -0.00    +0.000 N 
DOCKED: ATOM     23  H   UNL     1      20.392 -11.316  -1.996 -0.03 -0.00    +0.000 HD
DOCKED: BRANCH  22  24
DOCKED: ATOM     24  C   UNL     1      20.547 -10.556  -3.934 -0.43 -0.00    +0.000 A 
DOCKED: ATOM     25  C   UNL     1      21.644 -10.881  -4.745 -0.46 -0.00    +0.000 A 
DOCKED: ATOM     26  C   UNL     1      21.523 -10.884  -6.137 -0.39 -0.00    +0.000 A 
DOCKED: ATOM     27  C   UNL     1      20.304 -10.538  -6.748 -0.28 -0.00    +0.000 A 
DOCKED: ATOM     28  C   UNL     1      19.207 -10.205  -5.933 -0.26 -0.00    +0.000 A 
DOCKED: ATOM     29  C   UNL     1      19.330 -10.204  -4.541 -0.30 -0.00    +0.000 A 
DOCKED: BRANCH  27  30
DOCKED: ATOM     30  C   UNL     1      20.156 -10.532  -8.226 -0.24 -0.00    +0.000 C 
DOCKED: ATOM     31  N   UNL     1      18.922 -10.163  -8.852 -0.19 -0.00    +0.000 N 
DOCKED: ATOM     32  O   UNL     1      18.845 -10.067 -10.199 -0.14 -0.00    +0.000 OA
DOCKED: ATOM     33  O   UNL     1      21.132 -10.873  -8.949 -0.27 -0.00    +0.000 OA
DOCKED: ATOM     34  H   UNL     1      18.128  -9.979  -8.300 -0.01 -0.00    +0.000 HD
DOCKED: ENDBRANCH  27  30
DOCKED: ENDBRANCH  22  24
DOCKED: ENDBRANCH  19  21
DOCKED: ENDBRANCH   1  19
DOCKED: TORSDOF 9
DOCKED: TER
DOCKED: ENDMDL
________________________________________________________________________________


	BEGINNING GENETIC ALGORITHM DOCKING 51 of 100
Run: 51 Seed: 1860911159 1083543670 [ Run 51 of 100 GA/GALS ]
Beginning LAMARCKIAN GENETIC ALGORITHM (LGA), with a maximum of 2500000 energy evaluations.

Final-Value: -16.256


	FINAL GENETIC ALGORITHM DOCKED STATE
	_______________________________________________


Detailed state:  trans 22.342 -8.042 -5.442 quatxyzw -0.299636 -0.463076 -0.831263 0.069147 center 1.619 0.086 0.013 ntor 9 -87.4104 -59.2001 -112.0210 91.6358 -56.1474 -100.9703 178.1666 86.1366 10.3833
State:	 22.342  -8.042  -5.442  -0.300 -0.464 -0.833 172.070    -87.41  -59.20 -112.02   91.64  -56.15 -100.97  178.17   86.14   10.38

DOCKED: MODEL       51
DOCKED: USER    Run = 51
DOCKED: USER    DPF = ligand_dock.biased.dpf
DOCKED: USER  
DOCKED: USER    Estimated Free Energy of Binding    =  -11.84 kcal/mol  [=(1)+(2)+(3)-(4)]
DOCKED: USER    Estimated Inhibition Constant, Ki   =    2.08 nM (nanomolar)  [Temperature = 298.15 K]
DOCKED: USER    
DOCKED: USER    (1) Final Intermolecular Energy     =  -14.53 kcal/mol
DOCKED: USER        vdW + Hbond + desolv Energy     =  -14.53 kcal/mol
DOCKED: USER        Electrostatic Energy            =   +0.00 kcal/mol
DOCKED: USER    (2) Final Total Internal Energy     =   -1.73 kcal/mol
DOCKED: USER    (3) Torsional Free Energy           =   +2.68 kcal/mol
DOCKED: USER    (4) Unbound System's Energy  [=(2)] =   -1.73 kcal/mol
DOCKED: USER    
DOCKED: USER    
DOCKED: USER    NEWDPF move ligand.pdbqt
DOCKED: USER    NEWDPF about 1.619000 0.086000 0.013000
DOCKED: USER    NEWDPF tran0 22.342251 -8.041594 -5.441801
DOCKED: USER    NEWDPF quaternion0 -0.299636 -0.463076 -0.831263 0.069147
DOCKED: USER    NEWDPF axisangle0 -0.300355 -0.464187 -0.833257 172.070008
DOCKED: USER    NEWDPF quat0 -0.300355 -0.464187 -0.833257 172.070008
DOCKED: USER    NEWDPF dihe0 -87.41 -59.20 -112.02 91.64 -56.15 -100.97 178.17 86.14 10.38 
DOCKED: USER  keepresnum = 1 
DOCKED: USER  
DOCKED: REMARK  Name = 
DOCKED: REMARK  11 active torsions:
DOCKED: REMARK  status: ('A' for Active; 'I' for Inactive)
DOCKED: REMARK    1  A    between atoms: C_2  and  O_3
DOCKED: REMARK    2  A    between atoms: O_3  and  C_4
DOCKED: REMARK    3  A    between atoms: C_4  and  C_5
DOCKED: REMARK    4  A    between atoms: C_10  and  C_11
DOCKED: REMARK    5  A    between atoms: C_11  and  N_12
DOCKED: REMARK    6  A    between atoms: N_12  and  C_13
DOCKED: REMARK    7  A    between atoms: N_12  and  C_15
DOCKED: REMARK    8  A    between atoms: C_13  and  C_14
DOCKED: REMARK    9  A    between atoms: C_15  and  C_16
DOCKED: REMARK   10  A    between atoms: N_21  and  C_22
DOCKED: REMARK   11  A    between atoms: C_25  and  C_26
DOCKED: REMARK                            x       y       z     vdW  Elec       q    Type
DOCKED: REMARK                         _______ _______ _______ _____ _____    ______ ____
DOCKED: USER                              x       y       z     vdW  Elec       q    Type
DOCKED: USER                           _______ _______ _______ _____ _____    ______ ____
DOCKED: ROOT
DOCKED: ATOM      1  C   UNL     1      20.680  -9.427  -6.469 -0.22 -0.00    +0.000 C 
DOCKED: ENDROOT
DOCKED: BRANCH   1   2
DOCKED: ATOM      2  C   UNL     1      22.004  -9.924  -6.974 -0.26 -0.00    +0.000 A 
DOCKED: ATOM      3  C   UNL     1      22.378 -11.264  -6.799 -0.40 -0.00    +0.000 A 
DOCKED: ATOM      4  C   UNL     1      23.620 -11.719  -7.255 -0.46 -0.00    +0.000 A 
DOCKED: ATOM      5  C   UNL     1      24.510 -10.833  -7.879 -0.35 -0.00    +0.000 A 
DOCKED: ATOM      6  C   UNL     1      25.762 -11.277  -8.330 -0.36 -0.00    +0.000 A 
DOCKED: ATOM      7  C   UNL     1      26.664 -10.380  -8.924 -0.31 -0.00    +0.000 A 
DOCKED: ATOM      8  C   UNL     1      26.287  -9.039  -9.101 -0.13 -0.00    +0.000 A 
DOCKED: ATOM      9  C   UNL     1      25.039  -8.589  -8.661 -0.12 -0.00    +0.000 A 
DOCKED: ATOM     10  C   UNL     1      24.145  -9.476  -8.045 -0.21 -0.00    +0.000 A 
DOCKED: ATOM     11  C   UNL     1      22.894  -9.031  -7.592 -0.17 -0.00    +0.000 A 
DOCKED: BRANCH   7  12
DOCKED: ATOM     12  C   UNL     1      28.003 -10.867  -9.417 -0.29 -0.00    +0.000 C 
DOCKED: BRANCH  12  13
DOCKED: ATOM     13  N   UNL     1      29.094 -10.410  -8.528 -0.43 -0.00    +0.000 N 
DOCKED: ATOM     14  H   UNL     1      29.670 -11.249  -8.446 -0.63 -0.00    +0.000 HD
DOCKED: BRANCH  13  15
DOCKED: ATOM     15  C   UNL     1      29.990  -9.402  -9.134 -0.25 -0.00    +0.000 C 
DOCKED: ATOM     16  C   UNL     1      29.857  -9.294 -10.655 -0.16 -0.00    +0.000 C 
DOCKED: ENDBRANCH  13  15
DOCKED: BRANCH  13  17
DOCKED: ATOM     17  C   UNL     1      28.743 -10.167  -7.105 -0.50 -0.00    +0.000 C 
DOCKED: ATOM     18  C   UNL     1      28.532  -8.693  -6.735 -0.43 -0.00    +0.000 C 
DOCKED: ENDBRANCH  13  17
DOCKED: ENDBRANCH  12  13
DOCKED: ENDBRANCH   7  12
DOCKED: ENDBRANCH   1   2
DOCKED: BRANCH   1  19
DOCKED: ATOM     19  O   UNL     1      20.900  -8.415  -5.493 -0.20 -0.00    +0.000 OA
DOCKED: BRANCH  19  21
DOCKED: ATOM     20  O   UNL     1      21.127  -7.746  -3.297 -0.41 -0.00    +0.000 OA
DOCKED: ATOM     21  C   UNL     1      20.912  -8.678  -4.120 -0.36 -0.00    +0.000 C 
DOCKED: ATOM     22  N   UNL     1      20.722 -10.026  -3.667 -0.41 -0.00    +0.000 N 
DOCKED: ATOM     23  H   UNL     1      20.677 -10.737  -4.347 -0.01 -0.00    +0.000 HD
DOCKED: BRANCH  22  24
DOCKED: ATOM     24  C   UNL     1      20.594 -10.407  -2.288 -0.48 -0.00    +0.000 A 
DOCKED: ATOM     25  C   UNL     1      19.377 -10.932  -1.829 -0.38 -0.00    +0.000 A 
DOCKED: ATOM     26  C   UNL     1      19.215 -11.287  -0.488 -0.45 -0.00    +0.000 A 
DOCKED: ATOM     27  C   UNL     1      20.266 -11.102   0.431 -0.59 -0.00    +0.000 A 
DOCKED: ATOM     28  C   UNL     1      21.483 -10.569  -0.030 -0.55 -0.00    +0.000 A 
DOCKED: ATOM     29  C   UNL     1      21.642 -10.216  -1.373 -0.44 -0.00    +0.000 A 
DOCKED: BRANCH  27  30
DOCKED: ATOM     30  C   UNL     1      20.113 -11.470   1.861 -0.76 -0.00    +0.000 C 
DOCKED: ATOM     31  N   UNL     1      20.541 -10.592   2.908 -0.64 -0.00    +0.000 N 
DOCKED: ATOM     32  O   UNL     1      20.297 -10.906   4.201 -1.03 -0.00    +0.000 OA
DOCKED: ATOM     33  O   UNL     1      19.608 -12.586   2.165 -1.55 -0.00    +0.000 OA
DOCKED: ATOM     34  H   UNL     1      21.015  -9.759   2.686 -0.60 -0.00    +0.000 HD
DOCKED: ENDBRANCH  27  30
DOCKED: ENDBRANCH  22  24
DOCKED: ENDBRANCH  19  21
DOCKED: ENDBRANCH   1  19
DOCKED: TORSDOF 9
DOCKED: TER
DOCKED: ENDMDL
________________________________________________________________________________


	BEGINNING GENETIC ALGORITHM DOCKING 52 of 100
Run: 52 Seed: 456802879 650373842 [ Run 52 of 100 GA/GALS ]
Beginning LAMARCKIAN GENETIC ALGORITHM (LGA), with a maximum of 2500000 energy evaluations.

Final-Value: -14.693


	FINAL GENETIC ALGORITHM DOCKED STATE
	_______________________________________________


Detailed state:  trans 12.818 -3.402 3.740 quatxyzw 0.408587 0.801361 0.415759 -0.134247 center 1.619 0.086 0.013 ntor 9 -8.4008 128.8420 102.1642 -15.3612 -175.5686 174.4009 103.3497 -178.1943 -1.7826
State:	 12.818  -3.402   3.740   0.412  0.809  0.420 -164.570     -8.40  128.84  102.16  -15.36 -175.57  174.40  103.35 -178.19   -1.78

DOCKED: MODEL       52
DOCKED: USER    Run = 52
DOCKED: USER    DPF = ligand_dock.biased.dpf
DOCKED: USER  
DOCKED: USER    Estimated Free Energy of Binding    =   -9.87 kcal/mol  [=(1)+(2)+(3)-(4)]
DOCKED: USER    Estimated Inhibition Constant, Ki   =   57.75 nM (nanomolar)  [Temperature = 298.15 K]
DOCKED: USER    
DOCKED: USER    (1) Final Intermolecular Energy     =  -12.56 kcal/mol
DOCKED: USER        vdW + Hbond + desolv Energy     =  -12.56 kcal/mol
DOCKED: USER        Electrostatic Energy            =   +0.00 kcal/mol
DOCKED: USER    (2) Final Total Internal Energy     =   -2.13 kcal/mol
DOCKED: USER    (3) Torsional Free Energy           =   +2.68 kcal/mol
DOCKED: USER    (4) Unbound System's Energy  [=(2)] =   -2.13 kcal/mol
DOCKED: USER    
DOCKED: USER    
DOCKED: USER    NEWDPF move ligand.pdbqt
DOCKED: USER    NEWDPF about 1.619000 0.086000 0.013000
DOCKED: USER    NEWDPF tran0 12.817697 -3.402352 3.739911
DOCKED: USER    NEWDPF quaternion0 0.408587 0.801361 0.415759 -0.134247
DOCKED: USER    NEWDPF axisangle0 0.412319 0.808681 0.419557 -164.569828
DOCKED: USER    NEWDPF quat0 0.412319 0.808681 0.419557 -164.569828
DOCKED: USER    NEWDPF dihe0 -8.40 128.84 102.16 -15.36 -175.57 174.40 103.35 -178.19 -1.78 
DOCKED: USER  keepresnum = 1 
DOCKED: USER  
DOCKED: REMARK  Name = 
DOCKED: REMARK  11 active torsions:
DOCKED: REMARK  status: ('A' for Active; 'I' for Inactive)
DOCKED: REMARK    1  A    between atoms: C_2  and  O_3
DOCKED: REMARK    2  A    between atoms: O_3  and  C_4
DOCKED: REMARK    3  A    between atoms: C_4  and  C_5
DOCKED: REMARK    4  A    between atoms: C_10  and  C_11
DOCKED: REMARK    5  A    between atoms: C_11  and  N_12
DOCKED: REMARK    6  A    between atoms: N_12  and  C_13
DOCKED: REMARK    7  A    between atoms: N_12  and  C_15
DOCKED: REMARK    8  A    between atoms: C_13  and  C_14
DOCKED: REMARK    9  A    between atoms: C_15  and  C_16
DOCKED: REMARK   10  A    between atoms: N_21  and  C_22
DOCKED: REMARK   11  A    between atoms: C_25  and  C_26
DOCKED: REMARK                            x       y       z     vdW  Elec       q    Type
DOCKED: REMARK                         _______ _______ _______ _____ _____    ______ ____
DOCKED: USER                              x       y       z     vdW  Elec       q    Type
DOCKED: USER                           _______ _______ _______ _____ _____    ______ ____
DOCKED: ROOT
DOCKED: ATOM      1  C   UNL     1      11.113  -4.538   4.982 -0.33 +0.00    +0.000 C 
DOCKED: ENDROOT
DOCKED: BRANCH   1   2
DOCKED: ATOM      2  C   UNL     1      12.200  -5.549   4.748 -0.21 +0.00    +0.000 A 
DOCKED: ATOM      3  C   UNL     1      12.979  -6.020   5.815 -0.16 +0.00    +0.000 A 
DOCKED: ATOM      4  C   UNL     1      14.001  -6.947   5.590 -0.40 +0.00    +0.000 A 
DOCKED: ATOM      5  C   UNL     1      14.266  -7.404   4.291 -0.31 +0.00    +0.000 A 
DOCKED: ATOM      6  C   UNL     1      15.296  -8.327   4.054 -0.33 +0.00    +0.000 A 
DOCKED: ATOM      7  C   UNL     1      15.581  -8.756   2.748 -0.31 +0.00    +0.000 A 
DOCKED: ATOM      8  C   UNL     1      14.798  -8.286   1.681 -0.24 +0.00    +0.000 A 
DOCKED: ATOM      9  C   UNL     1      13.765  -7.372   1.909 -0.18 +0.00    +0.000 A 
DOCKED: ATOM     10  C   UNL     1      13.494  -6.921   3.209 -0.17 +0.00    +0.000 A 
DOCKED: ATOM     11  C   UNL     1      12.464  -5.997   3.445 -0.10 +0.00    +0.000 A 
DOCKED: BRANCH   7  12
DOCKED: ATOM     12  C   UNL     1      16.682  -9.756   2.503 -0.44 +0.00    +0.000 C 
DOCKED: BRANCH  12  13
DOCKED: ATOM     13  N   UNL     1      16.231 -10.827   1.587 -0.35 +0.00    +0.000 N 
DOCKED: ATOM     14  H   UNL     1      15.543 -10.341   1.012 +0.00 +0.00    +0.000 HD
DOCKED: BRANCH  13  15
DOCKED: ATOM     15  C   UNL     1      17.261 -11.283   0.629 -0.44 +0.00    +0.000 C 
DOCKED: ATOM     16  C   UNL     1      18.475 -11.934   1.294 -0.59 -0.00    +0.000 C 
DOCKED: ENDBRANCH  13  15
DOCKED: BRANCH  13  17
DOCKED: ATOM     17  C   UNL     1      15.396 -11.906   2.176 -0.49 +0.00    +0.000 C 
DOCKED: ATOM     18  C   UNL     1      13.889 -11.614   2.201 -0.45 +0.00    +0.000 C 
DOCKED: ENDBRANCH  13  17
DOCKED: ENDBRANCH  12  13
DOCKED: ENDBRANCH   7  12
DOCKED: ENDBRANCH   1   2
DOCKED: BRANCH   1  19
DOCKED: ATOM     19  O   UNL     1      11.539  -3.270   4.495 -0.48 +0.00    +0.000 OA
DOCKED: BRANCH  19  21
DOCKED: ATOM     20  O   UNL     1      12.891  -2.940   2.655 -0.65 -0.00    +0.000 OA
DOCKED: ATOM     21  C   UNL     1      12.791  -3.066   3.907 -0.34 -0.00    +0.000 C 
DOCKED: ATOM     22  N   UNL     1      13.958  -3.051   4.740 -0.35 -0.00    +0.000 N 
DOCKED: ATOM     23  H   UNL     1      13.845  -3.272   5.694 -0.54 +0.00    +0.000 HD
DOCKED: BRANCH  22  24
DOCKED: ATOM     24  C   UNL     1      15.281  -2.733   4.277 -0.41 -0.00    +0.000 A 
DOCKED: ATOM     25  C   UNL     1      15.439  -1.856   3.195 -0.30 -0.00    +0.000 A 
DOCKED: ATOM     26  C   UNL     1      16.712  -1.550   2.707 -0.34 -0.00    +0.000 A 
DOCKED: ATOM     27  C   UNL     1      17.856  -2.136   3.281 -0.42 -0.00    +0.000 A 
DOCKED: ATOM     28  C   UNL     1      17.694  -3.021   4.362 -0.16 -0.00    +0.000 A 
DOCKED: ATOM     29  C   UNL     1      16.419  -3.325   4.849 -0.46 -0.00    +0.000 A 
DOCKED: BRANCH  27  30
DOCKED: ATOM     30  C   UNL     1      19.217  -1.825   2.776 -0.56 -0.00    +0.000 C 
DOCKED: ATOM     31  N   UNL     1      19.896  -0.622   3.150 -0.48 -0.00    +0.000 N 
DOCKED: ATOM     32  O   UNL     1      21.174  -0.412   2.758 -0.53 -0.00    +0.000 OA
DOCKED: ATOM     33  O   UNL     1      19.786  -2.631   1.989 -0.66 -0.00    +0.000 OA
DOCKED: ATOM     34  H   UNL     1      19.431   0.055   3.692 -0.40 -0.00    +0.000 HD
DOCKED: ENDBRANCH  27  30
DOCKED: ENDBRANCH  22  24
DOCKED: ENDBRANCH  19  21
DOCKED: ENDBRANCH   1  19
DOCKED: TORSDOF 9
DOCKED: TER
DOCKED: ENDMDL
________________________________________________________________________________


	BEGINNING GENETIC ALGORITHM DOCKING 53 of 100
Run: 53 Seed: 1618211948 1248293050 [ Run 53 of 100 GA/GALS ]
Beginning LAMARCKIAN GENETIC ALGORITHM (LGA), with a maximum of 2500000 energy evaluations.

Final-Value: -15.233


	FINAL GENETIC ALGORITHM DOCKED STATE
	_______________________________________________


Detailed state:  trans 22.009 -9.961 -4.976 quatxyzw -0.022648 0.400854 -0.693681 -0.598004 center 1.619 0.086 0.013 ntor 9 -160.5363 137.8091 62.9619 -26.9299 150.5350 -165.8049 -152.6710 -120.7700 -0.6342
State:	 22.009  -9.961  -4.976  -0.028  0.500 -0.865 -106.546   -160.54  137.81   62.96  -26.93  150.54 -165.80 -152.67 -120.77   -0.63

DOCKED: MODEL       53
DOCKED: USER    Run = 53
DOCKED: USER    DPF = ligand_dock.biased.dpf
DOCKED: USER  
DOCKED: USER    Estimated Free Energy of Binding    =  -10.58 kcal/mol  [=(1)+(2)+(3)-(4)]
DOCKED: USER    Estimated Inhibition Constant, Ki   =   17.45 nM (nanomolar)  [Temperature = 298.15 K]
DOCKED: USER    
DOCKED: USER    (1) Final Intermolecular Energy     =  -13.27 kcal/mol
DOCKED: USER        vdW + Hbond + desolv Energy     =  -13.27 kcal/mol
DOCKED: USER        Electrostatic Energy            =   +0.00 kcal/mol
DOCKED: USER    (2) Final Total Internal Energy     =   -1.96 kcal/mol
DOCKED: USER    (3) Torsional Free Energy           =   +2.68 kcal/mol
DOCKED: USER    (4) Unbound System's Energy  [=(2)] =   -1.96 kcal/mol
DOCKED: USER    
DOCKED: USER    
DOCKED: USER    NEWDPF move ligand.pdbqt
DOCKED: USER    NEWDPF about 1.619000 0.086000 0.013000
DOCKED: USER    NEWDPF tran0 22.008551 -9.960595 -4.976258
DOCKED: USER    NEWDPF quaternion0 -0.022648 0.400854 -0.693681 -0.598004
DOCKED: USER    NEWDPF axisangle0 -0.028257 0.500134 -0.865487 -106.545815
DOCKED: USER    NEWDPF quat0 -0.028257 0.500134 -0.865487 -106.545815
DOCKED: USER    NEWDPF dihe0 -160.54 137.81 62.96 -26.93 150.54 -165.80 -152.67 -120.77 -0.63 
DOCKED: USER  keepresnum = 1 
DOCKED: USER  
DOCKED: REMARK  Name = 
DOCKED: REMARK  11 active torsions:
DOCKED: REMARK  status: ('A' for Active; 'I' for Inactive)
DOCKED: REMARK    1  A    between atoms: C_2  and  O_3
DOCKED: REMARK    2  A    between atoms: O_3  and  C_4
DOCKED: REMARK    3  A    between atoms: C_4  and  C_5
DOCKED: REMARK    4  A    between atoms: C_10  and  C_11
DOCKED: REMARK    5  A    between atoms: C_11  and  N_12
DOCKED: REMARK    6  A    between atoms: N_12  and  C_13
DOCKED: REMARK    7  A    between atoms: N_12  and  C_15
DOCKED: REMARK    8  A    between atoms: C_13  and  C_14
DOCKED: REMARK    9  A    between atoms: C_15  and  C_16
DOCKED: REMARK   10  A    between atoms: N_21  and  C_22
DOCKED: REMARK   11  A    between atoms: C_25  and  C_26
DOCKED: REMARK                            x       y       z     vdW  Elec       q    Type
DOCKED: REMARK                         _______ _______ _______ _____ _____    ______ ____
DOCKED: USER                              x       y       z     vdW  Elec       q    Type
DOCKED: USER                           _______ _______ _______ _____ _____    ______ ____
DOCKED: ROOT
DOCKED: ATOM      1  C   UNL     1      20.444  -9.035  -6.536 -0.17 -0.00    +0.000 C 
DOCKED: ENDROOT
DOCKED: BRANCH   1   2
DOCKED: ATOM      2  C   UNL     1      21.030  -7.868  -5.794 -0.15 -0.00    +0.000 A 
DOCKED: ATOM      3  C   UNL     1      21.857  -6.946  -6.451 -0.11 -0.00    +0.000 A 
DOCKED: ATOM      4  C   UNL     1      22.415  -5.871  -5.752 -0.12 -0.00    +0.000 A 
DOCKED: ATOM      5  C   UNL     1      22.163  -5.714  -4.381 -0.18 -0.00    +0.000 A 
DOCKED: ATOM      6  C   UNL     1      22.726  -4.643  -3.669 -0.18 -0.00    +0.000 A 
DOCKED: ATOM      7  C   UNL     1      22.499  -4.509  -2.290 -0.31 -0.00    +0.000 A 
DOCKED: ATOM      8  C   UNL     1      21.668  -5.431  -1.634 -0.34 +0.00    +0.000 A 
DOCKED: ATOM      9  C   UNL     1      21.096  -6.496  -2.337 -0.41 -0.00    +0.000 A 
DOCKED: ATOM     10  C   UNL     1      21.341  -6.649  -3.709 -0.29 -0.00    +0.000 A 
DOCKED: ATOM     11  C   UNL     1      20.779  -7.720  -4.421 -0.24 -0.00    +0.000 A 
DOCKED: BRANCH   7  12
DOCKED: ATOM     12  C   UNL     1      23.098  -3.350  -1.534 -0.31 +0.00    +0.000 C 
DOCKED: BRANCH  12  13
DOCKED: ATOM     13  N   UNL     1      22.100  -2.277  -1.330 -0.21 -0.00    +0.000 N 
DOCKED: ATOM     14  H   UNL     1      21.221  -2.770  -1.490 -0.00 -0.00    +0.000 HD
DOCKED: BRANCH  13  15
DOCKED: ATOM     15  C   UNL     1      22.005  -1.791   0.063 -0.34 -0.00    +0.000 C 
DOCKED: ATOM     16  C   UNL     1      21.014  -2.578   0.924 -0.49 +0.00    +0.000 C 
DOCKED: ENDBRANCH  13  15
DOCKED: BRANCH  13  17
DOCKED: ATOM     17  C   UNL     1      22.027  -1.222  -2.373 -0.08 -0.00    +0.000 C 
DOCKED: ATOM     18  C   UNL     1      20.942  -1.441  -3.437 -0.05 -0.00    +0.000 C 
DOCKED: ENDBRANCH  13  17
DOCKED: ENDBRANCH  12  13
DOCKED: ENDBRANCH   7  12
DOCKED: ENDBRANCH   1   2
DOCKED: BRANCH   1  19
DOCKED: ATOM     19  O   UNL     1      21.107 -10.228  -6.134 -0.31 -0.00    +0.000 OA
DOCKED: BRANCH  19  21
DOCKED: ATOM     20  O   UNL     1      22.135 -11.347  -4.398 -0.57 -0.00    +0.000 OA
DOCKED: ATOM     21  C   UNL     1      21.164 -10.651  -4.802 -0.49 -0.00    +0.000 C 
DOCKED: ATOM     22  N   UNL     1      20.082 -10.321  -3.921 -0.37 -0.00    +0.000 N 
DOCKED: ATOM     23  H   UNL     1      19.291  -9.880  -4.308 +0.00 -0.00    +0.000 HD
DOCKED: BRANCH  22  24
DOCKED: ATOM     24  C   UNL     1      20.075 -10.591  -2.509 -0.42 -0.00    +0.000 A 
DOCKED: ATOM     25  C   UNL     1      21.181 -10.219  -1.732 -0.54 -0.00    +0.000 A 
DOCKED: ATOM     26  C   UNL     1      21.213 -10.493  -0.362 -0.63 -0.00    +0.000 A 
DOCKED: ATOM     27  C   UNL     1      20.143 -11.167   0.256 -0.57 -0.00    +0.000 A 
DOCKED: ATOM     28  C   UNL     1      19.037 -11.545  -0.527 -0.43 -0.00    +0.000 A 
DOCKED: ATOM     29  C   UNL     1      19.008 -11.270  -1.897 -0.31 -0.00    +0.000 A 
DOCKED: BRANCH  27  30
DOCKED: ATOM     30  C   UNL     1      20.159 -11.469   1.709 -0.76 -0.00    +0.000 C 
DOCKED: ATOM     31  N   UNL     1      20.644 -10.519   2.665 -0.60 -0.00    +0.000 N 
DOCKED: ATOM     32  O   UNL     1      20.552 -10.779   3.989 -1.08 -0.00    +0.000 OA
DOCKED: ATOM     33  O   UNL     1      19.749 -12.591   2.115 -1.63 -0.00    +0.000 OA
DOCKED: ATOM     34  H   UNL     1      21.046  -9.675   2.356 -0.57 -0.00    +0.000 HD
DOCKED: ENDBRANCH  27  30
DOCKED: ENDBRANCH  22  24
DOCKED: ENDBRANCH  19  21
DOCKED: ENDBRANCH   1  19
DOCKED: TORSDOF 9
DOCKED: TER
DOCKED: ENDMDL
________________________________________________________________________________


	BEGINNING GENETIC ALGORITHM DOCKING 54 of 100
Run: 54 Seed: 648513249 308492821 [ Run 54 of 100 GA/GALS ]
Beginning LAMARCKIAN GENETIC ALGORITHM (LGA), with a maximum of 2500000 energy evaluations.

Final-Value: -15.747


	FINAL GENETIC ALGORITHM DOCKED STATE
	_______________________________________________


Detailed state:  trans 22.693 -9.327 -5.864 quatxyzw -0.226809 -0.389500 -0.892283 -0.026041 center 1.619 0.086 0.013 ntor 9 -180.0000 5.2324 -129.4179 -45.7329 -173.1981 53.9164 28.8260 80.9671 58.0516
State:	 22.693  -9.327  -5.864  -0.227 -0.390 -0.893 -177.016   -180.00    5.23 -129.42  -45.73 -173.20   53.92   28.83   80.97   58.05

DOCKED: MODEL       54
DOCKED: USER    Run = 54
DOCKED: USER    DPF = ligand_dock.biased.dpf
DOCKED: USER  
DOCKED: USER    Estimated Free Energy of Binding    =  -11.56 kcal/mol  [=(1)+(2)+(3)-(4)]
DOCKED: USER    Estimated Inhibition Constant, Ki   =    3.35 nM (nanomolar)  [Temperature = 298.15 K]
DOCKED: USER    
DOCKED: USER    (1) Final Intermolecular Energy     =  -14.25 kcal/mol
DOCKED: USER        vdW + Hbond + desolv Energy     =  -14.25 kcal/mol
DOCKED: USER        Electrostatic Energy            =   +0.00 kcal/mol
DOCKED: USER    (2) Final Total Internal Energy     =   -1.50 kcal/mol
DOCKED: USER    (3) Torsional Free Energy           =   +2.68 kcal/mol
DOCKED: USER    (4) Unbound System's Energy  [=(2)] =   -1.50 kcal/mol
DOCKED: USER    
DOCKED: USER    
DOCKED: USER    NEWDPF move ligand.pdbqt
DOCKED: USER    NEWDPF about 1.619000 0.086000 0.013000
DOCKED: USER    NEWDPF tran0 22.692734 -9.327026 -5.864227
DOCKED: USER    NEWDPF quaternion0 -0.226809 -0.389500 -0.892283 -0.026041
DOCKED: USER    NEWDPF axisangle0 -0.226886 -0.389632 -0.892586 -177.015537
DOCKED: USER    NEWDPF quat0 -0.226886 -0.389632 -0.892586 -177.015537
DOCKED: USER    NEWDPF dihe0 -180.00 5.23 -129.42 -45.73 -173.20 53.92 28.83 80.97 58.05 
DOCKED: USER  keepresnum = 1 
DOCKED: USER  
DOCKED: REMARK  Name = 
DOCKED: REMARK  11 active torsions:
DOCKED: REMARK  status: ('A' for Active; 'I' for Inactive)
DOCKED: REMARK    1  A    between atoms: C_2  and  O_3
DOCKED: REMARK    2  A    between atoms: O_3  and  C_4
DOCKED: REMARK    3  A    between atoms: C_4  and  C_5
DOCKED: REMARK    4  A    between atoms: C_10  and  C_11
DOCKED: REMARK    5  A    between atoms: C_11  and  N_12
DOCKED: REMARK    6  A    between atoms: N_12  and  C_13
DOCKED: REMARK    7  A    between atoms: N_12  and  C_15
DOCKED: REMARK    8  A    between atoms: C_13  and  C_14
DOCKED: REMARK    9  A    between atoms: C_15  and  C_16
DOCKED: REMARK   10  A    between atoms: N_21  and  C_22
DOCKED: REMARK   11  A    between atoms: C_25  and  C_26
DOCKED: REMARK                            x       y       z     vdW  Elec       q    Type
DOCKED: REMARK                         _______ _______ _______ _____ _____    ______ ____
DOCKED: USER                              x       y       z     vdW  Elec       q    Type
DOCKED: USER                           _______ _______ _______ _____ _____    ______ ____
DOCKED: ROOT
DOCKED: ATOM      1  C   UNL     1      21.397 -10.712  -7.328 -0.30 -0.00    +0.000 C 
DOCKED: ENDROOT
DOCKED: BRANCH   1   2
DOCKED: ATOM      2  C   UNL     1      22.820 -10.834  -7.792 -0.31 -0.00    +0.000 A 
DOCKED: ATOM      3  C   UNL     1      23.176 -11.783  -8.761 -0.33 -0.00    +0.000 A 
DOCKED: ATOM      4  C   UNL     1      24.506 -11.906  -9.178 -0.34 -0.00    +0.000 A 
DOCKED: ATOM      5  C   UNL     1      25.499 -11.089  -8.619 -0.35 -0.00    +0.000 A 
DOCKED: ATOM      6  C   UNL     1      26.837 -11.211  -9.024 -0.29 -0.00    +0.000 A 
DOCKED: ATOM      7  C   UNL     1      27.834 -10.415  -8.436 -0.40 -0.00    +0.000 A 
DOCKED: ATOM      8  C   UNL     1      27.475  -9.463  -7.468 -0.40 -0.00    +0.000 A 
DOCKED: ATOM      9  C   UNL     1      26.143  -9.329  -7.064 -0.27 -0.00    +0.000 A 
DOCKED: ATOM     10  C   UNL     1      25.148 -10.140  -7.630 -0.31 -0.00    +0.000 A 
DOCKED: ATOM     11  C   UNL     1      23.811 -10.018  -7.224 -0.24 -0.00    +0.000 A 
DOCKED: BRANCH   7  12
DOCKED: ATOM     12  C   UNL     1      29.267 -10.544  -8.885 -0.34 -0.00    +0.000 C 
DOCKED: BRANCH  12  13
DOCKED: ATOM     13  N   UNL     1      29.889  -9.214  -9.060 -0.20 -0.00    +0.000 N 
DOCKED: ATOM     14  H   UNL     1      29.121  -8.585  -8.823 +0.00 -0.00    +0.000 HD
DOCKED: BRANCH  13  15
DOCKED: ATOM     15  C   UNL     1      30.944  -8.900  -8.073 -0.26 -0.00    +0.000 C 
DOCKED: ATOM     16  C   UNL     1      30.527  -7.852  -7.038 -0.23 -0.00    +0.000 C 
DOCKED: ENDBRANCH  13  15
DOCKED: BRANCH  13  17
DOCKED: ATOM     17  C   UNL     1      30.183  -8.789 -10.453 -0.12 -0.00    +0.000 C 
DOCKED: ATOM     18  C   UNL     1      30.641  -9.916 -11.388 -0.21 -0.00    +0.000 C 
DOCKED: ENDBRANCH  13  17
DOCKED: ENDBRANCH  12  13
DOCKED: ENDBRANCH   7  12
DOCKED: ENDBRANCH   1   2
DOCKED: BRANCH   1  19
DOCKED: ATOM     19  O   UNL     1      21.357  -9.931  -6.139 -0.30 -0.00    +0.000 OA
DOCKED: BRANCH  19  21
DOCKED: ATOM     20  O   UNL     1      21.700 -11.645  -4.634 -0.61 -0.00    +0.000 OA
DOCKED: ATOM     21  C   UNL     1      21.236 -10.495  -4.865 -0.47 -0.00    +0.000 C 
DOCKED: ATOM     22  N   UNL     1      20.538  -9.767  -3.845 -0.36 -0.00    +0.000 N 
DOCKED: ATOM     23  H   UNL     1      20.091  -8.928  -4.103 +0.00 -0.00    +0.000 HD
DOCKED: BRANCH  22  24
DOCKED: ATOM     24  C   UNL     1      20.449 -10.181  -2.472 -0.47 -0.00    +0.000 A 
DOCKED: ATOM     25  C   UNL     1      19.373 -10.982  -2.062 -0.36 -0.00    +0.000 A 
DOCKED: ATOM     26  C   UNL     1      19.247 -11.377  -0.728 -0.39 -0.00    +0.000 A 
DOCKED: ATOM     27  C   UNL     1      20.187 -10.958   0.232 -0.58 -0.00    +0.000 A 
DOCKED: ATOM     28  C   UNL     1      21.262 -10.148  -0.180 -0.63 -0.00    +0.000 A 
DOCKED: ATOM     29  C   UNL     1      21.386  -9.756  -1.515 -0.55 -0.00    +0.000 A 
DOCKED: BRANCH  27  30
DOCKED: ATOM     30  C   UNL     1      20.070 -11.364   1.655 -0.74 -0.00    +0.000 C 
DOCKED: ATOM     31  N   UNL     1      20.584 -10.545   2.711 -0.62 -0.00    +0.000 N 
DOCKED: ATOM     32  O   UNL     1      20.373 -10.888   4.002 -1.12 -0.00    +0.000 OA
DOCKED: ATOM     33  O   UNL     1      19.518 -12.461   1.944 -1.59 -0.00    +0.000 OA
DOCKED: ATOM     34  H   UNL     1      21.093  -9.731   2.496 -0.58 -0.00    +0.000 HD
DOCKED: ENDBRANCH  27  30
DOCKED: ENDBRANCH  22  24
DOCKED: ENDBRANCH  19  21
DOCKED: ENDBRANCH   1  19
DOCKED: TORSDOF 9
DOCKED: TER
DOCKED: ENDMDL
________________________________________________________________________________


	BEGINNING GENETIC ALGORITHM DOCKING 55 of 100
Run: 55 Seed: 768161475 2020897339 [ Run 55 of 100 GA/GALS ]
Beginning LAMARCKIAN GENETIC ALGORITHM (LGA), with a maximum of 2500000 energy evaluations.

Final-Value: -14.133


	FINAL GENETIC ALGORITHM DOCKED STATE
	_______________________________________________


Detailed state:  trans 18.998 -9.500 -5.539 quatxyzw -0.205459 -0.248582 0.003193 -0.946564 center 1.619 0.086 0.013 ntor 9 -173.4259 142.3319 83.0611 -41.2705 -173.4501 -103.2719 -9.9595 -85.5666 -9.7884
State:	 18.998  -9.500  -5.539  -0.637 -0.771  0.010 -37.630   -173.43  142.33   83.06  -41.27 -173.45 -103.27   -9.96  -85.57   -9.79

DOCKED: MODEL       55
DOCKED: USER    Run = 55
DOCKED: USER    DPF = ligand_dock.biased.dpf
DOCKED: USER  
DOCKED: USER    Estimated Free Energy of Binding    =   -9.86 kcal/mol  [=(1)+(2)+(3)-(4)]
DOCKED: USER    Estimated Inhibition Constant, Ki   =   59.19 nM (nanomolar)  [Temperature = 298.15 K]
DOCKED: USER    
DOCKED: USER    (1) Final Intermolecular Energy     =  -12.55 kcal/mol
DOCKED: USER        vdW + Hbond + desolv Energy     =  -12.55 kcal/mol
DOCKED: USER        Electrostatic Energy            =   +0.00 kcal/mol
DOCKED: USER    (2) Final Total Internal Energy     =   -1.59 kcal/mol
DOCKED: USER    (3) Torsional Free Energy           =   +2.68 kcal/mol
DOCKED: USER    (4) Unbound System's Energy  [=(2)] =   -1.59 kcal/mol
DOCKED: USER    
DOCKED: USER    
DOCKED: USER    NEWDPF move ligand.pdbqt
DOCKED: USER    NEWDPF about 1.619000 0.086000 0.013000
DOCKED: USER    NEWDPF tran0 18.997975 -9.500017 -5.539459
DOCKED: USER    NEWDPF quaternion0 -0.205459 -0.248582 0.003193 -0.946564
DOCKED: USER    NEWDPF axisangle0 -0.637050 -0.770759 0.009900 -37.630261
DOCKED: USER    NEWDPF quat0 -0.637050 -0.770759 0.009900 -37.630261
DOCKED: USER    NEWDPF dihe0 -173.43 142.33 83.06 -41.27 -173.45 -103.27 -9.96 -85.57 -9.79 
DOCKED: USER  keepresnum = 1 
DOCKED: USER  
DOCKED: REMARK  Name = 
DOCKED: REMARK  11 active torsions:
DOCKED: REMARK  status: ('A' for Active; 'I' for Inactive)
DOCKED: REMARK    1  A    between atoms: C_2  and  O_3
DOCKED: REMARK    2  A    between atoms: O_3  and  C_4
DOCKED: REMARK    3  A    between atoms: C_4  and  C_5
DOCKED: REMARK    4  A    between atoms: C_10  and  C_11
DOCKED: REMARK    5  A    between atoms: C_11  and  N_12
DOCKED: REMARK    6  A    between atoms: N_12  and  C_13
DOCKED: REMARK    7  A    between atoms: N_12  and  C_15
DOCKED: REMARK    8  A    between atoms: C_13  and  C_14
DOCKED: REMARK    9  A    between atoms: C_15  and  C_16
DOCKED: REMARK   10  A    between atoms: N_21  and  C_22
DOCKED: REMARK   11  A    between atoms: C_25  and  C_26
DOCKED: REMARK                            x       y       z     vdW  Elec       q    Type
DOCKED: REMARK                         _______ _______ _______ _____ _____    ______ ____
DOCKED: USER                              x       y       z     vdW  Elec       q    Type
DOCKED: USER                           _______ _______ _______ _____ _____    ______ ____
DOCKED: ROOT
DOCKED: ATOM      1  C   UNL     1      20.387 -10.669  -7.102 -0.28 -0.00    +0.000 C 
DOCKED: ENDROOT
DOCKED: BRANCH   1   2
DOCKED: ATOM      2  C   UNL     1      19.004 -10.680  -7.687 -0.25 -0.00    +0.000 A 
DOCKED: ATOM      3  C   UNL     1      18.666  -9.815  -8.738 -0.16 -0.00    +0.000 A 
DOCKED: ATOM      4  C   UNL     1      17.372  -9.817  -9.268 -0.13 -0.00    +0.000 A 
DOCKED: ATOM      5  C   UNL     1      16.395 -10.675  -8.742 -0.17 -0.00    +0.000 A 
DOCKED: ATOM      6  C   UNL     1      15.091 -10.676  -9.261 -0.12 -0.00    +0.000 A 
DOCKED: ATOM      7  C   UNL     1      14.106 -11.512  -8.708 -0.14 -0.00    +0.000 A 
DOCKED: ATOM      8  C   UNL     1      14.448 -12.379  -7.658 -0.30 -0.00    +0.000 A 
DOCKED: ATOM      9  C   UNL     1      15.747 -12.390  -7.141 -0.26 -0.00    +0.000 A 
DOCKED: ATOM     10  C   UNL     1      16.726 -11.539  -7.672 -0.32 -0.00    +0.000 A 
DOCKED: ATOM     11  C   UNL     1      18.029 -11.537  -7.152 -0.28 -0.00    +0.000 A 
DOCKED: BRANCH   7  12
DOCKED: ATOM     12  C   UNL     1      12.711 -11.516  -9.279 -0.09 -0.00    +0.000 C 
DOCKED: BRANCH  12  13
DOCKED: ATOM     13  N   UNL     1      12.204 -12.898  -9.428 -0.12 -0.00    +0.000 N 
DOCKED: ATOM     14  H   UNL     1      12.961 -13.449  -9.023 -0.01 -0.00    +0.000 HD
DOCKED: BRANCH  13  15
DOCKED: ATOM     15  C   UNL     1      11.028 -13.208  -8.588 -0.14 -0.00    +0.000 C 
DOCKED: ATOM     16  C   UNL     1      11.365 -14.007  -7.327 -0.26 -0.00    +0.000 C 
DOCKED: ENDBRANCH  13  15
DOCKED: BRANCH  13  17
DOCKED: ATOM     17  C   UNL     1      12.158 -13.450 -10.806 -0.12 -0.00    +0.000 C 
DOCKED: ATOM     18  C   UNL     1      13.314 -14.397 -11.160 -0.17 +0.00    +0.000 C 
DOCKED: ENDBRANCH  13  17
DOCKED: ENDBRANCH  12  13
DOCKED: ENDBRANCH   7  12
DOCKED: ENDBRANCH   1   2
DOCKED: BRANCH   1  19
DOCKED: ATOM     19  O   UNL     1      20.389  -9.879  -5.917 -0.25 -0.00    +0.000 OA
DOCKED: BRANCH  19  21
DOCKED: ATOM     20  O   UNL     1      19.807 -11.621  -4.522 -0.55 -0.00    +0.000 OA
DOCKED: ATOM     21  C   UNL     1      20.177 -10.421  -4.646 -0.42 -0.00    +0.000 C 
DOCKED: ATOM     22  N   UNL     1      20.342  -9.582  -3.495 -0.35 -0.00    +0.000 N 
DOCKED: ATOM     23  H   UNL     1      20.515  -8.624  -3.646 -0.01 -0.00    +0.000 HD
DOCKED: BRANCH  22  24
DOCKED: ATOM     24  C   UNL     1      20.272 -10.046  -2.137 -0.46 -0.00    +0.000 A 
DOCKED: ATOM     25  C   UNL     1      21.433 -10.051  -1.351 -0.55 -0.00    +0.000 A 
DOCKED: ATOM     26  C   UNL     1      21.399 -10.521  -0.035 -0.61 -0.00    +0.000 A 
DOCKED: ATOM     27  C   UNL     1      20.203 -11.018   0.515 -0.60 -0.00    +0.000 A 
DOCKED: ATOM     28  C   UNL     1      19.041 -11.018  -0.278 -0.45 -0.00    +0.000 A 
DOCKED: ATOM     29  C   UNL     1      19.077 -10.546  -1.593 -0.36 -0.00    +0.000 A 
DOCKED: BRANCH  27  30
DOCKED: ATOM     30  C   UNL     1      20.147 -11.524   1.909 -0.77 -0.00    +0.000 C 
DOCKED: ATOM     31  N   UNL     1      20.452 -10.679   3.024 -0.67 -0.00    +0.000 N 
DOCKED: ATOM     32  O   UNL     1      20.294 -11.135   4.287 -1.02 -0.00    +0.000 OA
DOCKED: ATOM     33  O   UNL     1      19.837 -12.729   2.121 -1.59 -0.00    +0.000 OA
DOCKED: ATOM     34  H   UNL     1      20.779  -9.763   2.869 -0.59 -0.00    +0.000 HD
DOCKED: ENDBRANCH  27  30
DOCKED: ENDBRANCH  22  24
DOCKED: ENDBRANCH  19  21
DOCKED: ENDBRANCH   1  19
DOCKED: TORSDOF 9
DOCKED: TER
DOCKED: ENDMDL
________________________________________________________________________________


	BEGINNING GENETIC ALGORITHM DOCKING 56 of 100
Run: 56 Seed: 1415288583 852149385 [ Run 56 of 100 GA/GALS ]
Beginning LAMARCKIAN GENETIC ALGORITHM (LGA), with a maximum of 2500000 energy evaluations.

Final-Value: -15.977


	FINAL GENETIC ALGORITHM DOCKED STATE
	_______________________________________________


Detailed state:  trans 19.603 -11.351 -4.991 quatxyzw 0.317166 0.255962 -0.005285 -0.913160 center 1.619 0.086 0.013 ntor 9 -180.0000 -84.1312 142.0614 -144.0709 142.8322 -123.1981 91.7940 174.2342 145.0888
State:	 19.603 -11.351  -4.991   0.778  0.628 -0.013 -48.108   -180.00  -84.13  142.06 -144.07  142.83 -123.20   91.79  174.23  145.09

DOCKED: MODEL       56
DOCKED: USER    Run = 56
DOCKED: USER    DPF = ligand_dock.biased.dpf
DOCKED: USER  
DOCKED: USER    Estimated Free Energy of Binding    =  -10.92 kcal/mol  [=(1)+(2)+(3)-(4)]
DOCKED: USER    Estimated Inhibition Constant, Ki   =    9.85 nM (nanomolar)  [Temperature = 298.15 K]
DOCKED: USER    
DOCKED: USER    (1) Final Intermolecular Energy     =  -13.61 kcal/mol
DOCKED: USER        vdW + Hbond + desolv Energy     =  -13.61 kcal/mol
DOCKED: USER        Electrostatic Energy            =   +0.00 kcal/mol
DOCKED: USER    (2) Final Total Internal Energy     =   -2.37 kcal/mol
DOCKED: USER    (3) Torsional Free Energy           =   +2.68 kcal/mol
DOCKED: USER    (4) Unbound System's Energy  [=(2)] =   -2.37 kcal/mol
DOCKED: USER    
DOCKED: USER    
DOCKED: USER    NEWDPF move ligand.pdbqt
DOCKED: USER    NEWDPF about 1.619000 0.086000 0.013000
DOCKED: USER    NEWDPF tran0 19.603089 -11.350611 -4.990683
DOCKED: USER    NEWDPF quaternion0 0.317166 0.255962 -0.005285 -0.913160
DOCKED: USER    NEWDPF axisangle0 0.778128 0.627971 -0.012967 -48.108407
DOCKED: USER    NEWDPF quat0 0.778128 0.627971 -0.012967 -48.108407
DOCKED: USER    NEWDPF dihe0 -180.00 -84.13 142.06 -144.07 142.83 -123.20 91.79 174.23 145.09 
DOCKED: USER  keepresnum = 1 
DOCKED: USER  
DOCKED: REMARK  Name = 
DOCKED: REMARK  11 active torsions:
DOCKED: REMARK  status: ('A' for Active; 'I' for Inactive)
DOCKED: REMARK    1  A    between atoms: C_2  and  O_3
DOCKED: REMARK    2  A    between atoms: O_3  and  C_4
DOCKED: REMARK    3  A    between atoms: C_4  and  C_5
DOCKED: REMARK    4  A    between atoms: C_10  and  C_11
DOCKED: REMARK    5  A    between atoms: C_11  and  N_12
DOCKED: REMARK    6  A    between atoms: N_12  and  C_13
DOCKED: REMARK    7  A    between atoms: N_12  and  C_15
DOCKED: REMARK    8  A    between atoms: C_13  and  C_14
DOCKED: REMARK    9  A    between atoms: C_15  and  C_16
DOCKED: REMARK   10  A    between atoms: N_21  and  C_22
DOCKED: REMARK   11  A    between atoms: C_25  and  C_26
DOCKED: REMARK                            x       y       z     vdW  Elec       q    Type
DOCKED: REMARK                         _______ _______ _______ _____ _____    ______ ____
DOCKED: USER                              x       y       z     vdW  Elec       q    Type
DOCKED: USER                           _______ _______ _______ _____ _____    ______ ____
DOCKED: ROOT
DOCKED: ATOM      1  C   UNL     1      18.769 -10.191  -6.914 -0.27 -0.00    +0.000 C 
DOCKED: ENDROOT
DOCKED: BRANCH   1   2
DOCKED: ATOM      2  C   UNL     1      17.577 -10.458  -6.041 -0.25 -0.00    +0.000 A 
DOCKED: ATOM      3  C   UNL     1      16.692 -11.504  -6.340 -0.28 -0.00    +0.000 A 
DOCKED: ATOM      4  C   UNL     1      15.573 -11.738  -5.535 -0.14 -0.00    +0.000 A 
DOCKED: ATOM      5  C   UNL     1      15.318 -10.918  -4.426 -0.22 -0.00    +0.000 A 
DOCKED: ATOM      6  C   UNL     1      14.192 -11.139  -3.618 -0.26 -0.00    +0.000 A 
DOCKED: ATOM      7  C   UNL     1      13.921 -10.294  -2.529 -0.25 -0.00    +0.000 A 
DOCKED: ATOM      8  C   UNL     1      14.809  -9.249  -2.229 -0.20 -0.00    +0.000 A 
DOCKED: ATOM      9  C   UNL     1      15.937  -9.026  -3.025 -0.12 -0.00    +0.000 A 
DOCKED: ATOM     10  C   UNL     1      16.198  -9.851  -4.128 -0.20 -0.00    +0.000 A 
DOCKED: ATOM     11  C   UNL     1      17.323  -9.630  -4.936 -0.19 -0.00    +0.000 A 
DOCKED: BRANCH   7  12
DOCKED: ATOM     12  C   UNL     1      12.716 -10.545  -1.659 -0.26 -0.00    +0.000 C 
DOCKED: BRANCH  12  13
DOCKED: ATOM     13  N   UNL     1      13.063 -11.409  -0.509 -0.35 +0.00    +0.000 N 
DOCKED: ATOM     14  H   UNL     1      12.748 -12.326  -0.827 -0.02 +0.00    +0.000 HD
DOCKED: BRANCH  13  15
DOCKED: ATOM     15  C   UNL     1      14.516 -11.572  -0.288 -0.41 +0.00    +0.000 C 
DOCKED: ATOM     16  C   UNL     1      15.043 -12.960  -0.661 -0.53 +0.00    +0.000 C 
DOCKED: ENDBRANCH  13  15
DOCKED: BRANCH  13  17
DOCKED: ATOM     17  C   UNL     1      12.252 -11.242   0.724 -0.40 +0.00    +0.000 C 
DOCKED: ATOM     18  C   UNL     1      13.063 -10.962   1.997 -0.36 +0.00    +0.000 C 
DOCKED: ENDBRANCH  13  17
DOCKED: ENDBRANCH  12  13
DOCKED: ENDBRANCH   7  12
DOCKED: ENDBRANCH   1   2
DOCKED: BRANCH   1  19
DOCKED: ATOM     19  O   UNL     1      19.950 -10.609  -6.237 -0.33 -0.00    +0.000 OA
DOCKED: BRANCH  19  21
DOCKED: ATOM     20  O   UNL     1      19.822 -12.246  -4.617 -0.69 -0.00    +0.000 OA
DOCKED: ATOM     21  C   UNL     1      19.950 -11.024  -4.902 -0.47 -0.00    +0.000 C 
DOCKED: ATOM     22  N   UNL     1      20.050 -10.037  -3.866 -0.34 -0.00    +0.000 N 
DOCKED: ATOM     23  H   UNL     1      20.028  -9.088  -4.130 +0.00 -0.00    +0.000 HD
DOCKED: BRANCH  22  24
DOCKED: ATOM     24  C   UNL     1      20.182 -10.340  -2.467 -0.44 -0.00    +0.000 A 
DOCKED: ATOM     25  C   UNL     1      21.461 -10.451  -1.905 -0.48 -0.00    +0.000 A 
DOCKED: ATOM     26  C   UNL     1      21.619 -10.771  -0.554 -0.49 -0.00    +0.000 A 
DOCKED: ATOM     27  C   UNL     1      20.495 -11.008   0.260 -0.59 -0.00    +0.000 A 
DOCKED: ATOM     28  C   UNL     1      19.213 -10.903  -0.308 -0.46 -0.00    +0.000 A 
DOCKED: ATOM     29  C   UNL     1      19.058 -10.582  -1.660 -0.36 -0.00    +0.000 A 
DOCKED: BRANCH  27  30
DOCKED: ATOM     30  C   UNL     1      20.642 -11.352   1.697 -0.75 -0.00    +0.000 C 
DOCKED: ATOM     31  N   UNL     1      20.077 -10.529   2.723 -0.66 -0.00    +0.000 N 
DOCKED: ATOM     32  O   UNL     1      20.136 -10.918   4.017 -1.06 -0.00    +0.000 OA
DOCKED: ATOM     33  O   UNL     1      21.290 -12.383   2.026 -1.37 -0.00    +0.000 OA
DOCKED: ATOM     34  H   UNL     1      19.645  -9.677   2.486 -0.42 -0.00    +0.000 HD
DOCKED: ENDBRANCH  27  30
DOCKED: ENDBRANCH  22  24
DOCKED: ENDBRANCH  19  21
DOCKED: ENDBRANCH   1  19
DOCKED: TORSDOF 9
DOCKED: TER
DOCKED: ENDMDL
________________________________________________________________________________


	BEGINNING GENETIC ALGORITHM DOCKING 57 of 100
Run: 57 Seed: 1697356493 202132414 [ Run 57 of 100 GA/GALS ]
Beginning LAMARCKIAN GENETIC ALGORITHM (LGA), with a maximum of 2500000 energy evaluations.

Final-Value: -13.957


	FINAL GENETIC ALGORITHM DOCKED STATE
	_______________________________________________


Detailed state:  trans 19.409 -9.739 0.910 quatxyzw 0.010130 0.595804 0.288200 0.749570 center 1.619 0.086 0.013 ntor 9 46.4702 12.8954 101.7760 164.8783 159.7842 74.9732 100.5618 -100.9971 -37.5427
State:	 19.409  -9.739   0.910   0.015  0.900  0.435 82.894     46.47   12.90  101.78  164.88  159.78   74.97  100.56 -101.00  -37.54

DOCKED: MODEL       57
DOCKED: USER    Run = 57
DOCKED: USER    DPF = ligand_dock.biased.dpf
DOCKED: USER  
DOCKED: USER    Estimated Free Energy of Binding    =   -9.36 kcal/mol  [=(1)+(2)+(3)-(4)]
DOCKED: USER    Estimated Inhibition Constant, Ki   =  137.64 nM (nanomolar)  [Temperature = 298.15 K]
DOCKED: USER    
DOCKED: USER    (1) Final Intermolecular Energy     =  -12.05 kcal/mol
DOCKED: USER        vdW + Hbond + desolv Energy     =  -12.05 kcal/mol
DOCKED: USER        Electrostatic Energy            =   +0.00 kcal/mol
DOCKED: USER    (2) Final Total Internal Energy     =   -1.91 kcal/mol
DOCKED: USER    (3) Torsional Free Energy           =   +2.68 kcal/mol
DOCKED: USER    (4) Unbound System's Energy  [=(2)] =   -1.91 kcal/mol
DOCKED: USER    
DOCKED: USER    
DOCKED: USER    NEWDPF move ligand.pdbqt
DOCKED: USER    NEWDPF about 1.619000 0.086000 0.013000
DOCKED: USER    NEWDPF tran0 19.408736 -9.739008 0.910392
DOCKED: USER    NEWDPF quaternion0 0.010130 0.595804 0.288200 0.749570
DOCKED: USER    NEWDPF axisangle0 0.015304 0.900108 0.435397 82.893675
DOCKED: USER    NEWDPF quat0 0.015304 0.900108 0.435397 82.893675
DOCKED: USER    NEWDPF dihe0 46.47 12.90 101.78 164.88 159.78 74.97 100.56 -101.00 -37.54 
DOCKED: USER  keepresnum = 1 
DOCKED: USER  
DOCKED: REMARK  Name = 
DOCKED: REMARK  11 active torsions:
DOCKED: REMARK  status: ('A' for Active; 'I' for Inactive)
DOCKED: REMARK    1  A    between atoms: C_2  and  O_3
DOCKED: REMARK    2  A    between atoms: O_3  and  C_4
DOCKED: REMARK    3  A    between atoms: C_4  and  C_5
DOCKED: REMARK    4  A    between atoms: C_10  and  C_11
DOCKED: REMARK    5  A    between atoms: C_11  and  N_12
DOCKED: REMARK    6  A    between atoms: N_12  and  C_13
DOCKED: REMARK    7  A    between atoms: N_12  and  C_15
DOCKED: REMARK    8  A    between atoms: C_13  and  C_14
DOCKED: REMARK    9  A    between atoms: C_15  and  C_16
DOCKED: REMARK   10  A    between atoms: N_21  and  C_22
DOCKED: REMARK   11  A    between atoms: C_25  and  C_26
DOCKED: REMARK                            x       y       z     vdW  Elec       q    Type
DOCKED: REMARK                         _______ _______ _______ _____ _____    ______ ____
DOCKED: USER                              x       y       z     vdW  Elec       q    Type
DOCKED: USER                           _______ _______ _______ _____ _____    ______ ____
DOCKED: ROOT
DOCKED: ATOM      1  C   UNL     1      21.390 -11.002   0.445 -0.44 -0.00    +0.000 C 
DOCKED: ENDROOT
DOCKED: BRANCH   1   2
DOCKED: ATOM      2  C   UNL     1      21.079 -10.240  -0.811 -0.60 -0.00    +0.000 A 
DOCKED: ATOM      3  C   UNL     1      21.345  -8.866  -0.897 -0.47 -0.00    +0.000 A 
DOCKED: ATOM      4  C   UNL     1      21.037  -8.157  -2.062 -0.42 -0.00    +0.000 A 
DOCKED: ATOM      5  C   UNL     1      20.446  -8.812  -3.152 -0.35 -0.00    +0.000 A 
DOCKED: ATOM      6  C   UNL     1      20.125  -8.106  -4.322 -0.22 -0.00    +0.000 A 
DOCKED: ATOM      7  C   UNL     1      19.502  -8.759  -5.398 -0.16 -0.00    +0.000 A 
DOCKED: ATOM      8  C   UNL     1      19.240 -10.135  -5.311 -0.26 -0.00    +0.000 A 
DOCKED: ATOM      9  C   UNL     1      19.563 -10.848  -4.153 -0.39 -0.00    +0.000 A 
DOCKED: ATOM     10  C   UNL     1      20.162 -10.195  -3.066 -0.41 -0.00    +0.000 A 
DOCKED: ATOM     11  C   UNL     1      20.482 -10.901  -1.896 -0.33 -0.00    +0.000 A 
DOCKED: BRANCH   7  12
DOCKED: ATOM     12  C   UNL     1      19.171  -7.996  -6.656 -0.09 -0.00    +0.000 C 
DOCKED: BRANCH  12  13
DOCKED: ATOM     13  N   UNL     1      20.054  -8.403  -7.770 -0.07 -0.00    +0.000 N 
DOCKED: ATOM     14  H   UNL     1      20.107  -7.548  -8.325 +0.00 -0.00    +0.000 HD
DOCKED: BRANCH  13  15
DOCKED: ATOM     15  C   UNL     1      21.452  -8.674  -7.371 -0.14 -0.00    +0.000 C 
DOCKED: ATOM     16  C   UNL     1      21.902 -10.112  -7.639 -0.27 -0.00    +0.000 C 
DOCKED: ENDBRANCH  13  15
DOCKED: BRANCH  13  17
DOCKED: ATOM     17  C   UNL     1      19.488  -9.350  -8.764 -0.14 -0.00    +0.000 C 
DOCKED: ATOM     18  C   UNL     1      18.409 -10.294  -8.215 -0.23 -0.00    +0.000 C 
DOCKED: ENDBRANCH  13  17
DOCKED: ENDBRANCH  12  13
DOCKED: ENDBRANCH   7  12
DOCKED: ENDBRANCH   1   2
DOCKED: BRANCH   1  19
DOCKED: ATOM     19  O   UNL     1      20.482 -10.610   1.469 -0.84 -0.00    +0.000 OA
DOCKED: BRANCH  19  21
DOCKED: ATOM     20  O   UNL     1      18.835 -11.982   2.320 -0.94 -0.00    +0.000 OA
DOCKED: ATOM     21  C   UNL     1      19.160 -11.060   1.522 -0.62 -0.00    +0.000 C 
DOCKED: ATOM     22  N   UNL     1      18.195 -10.493   0.625 -0.35 -0.00    +0.000 N 
DOCKED: ATOM     23  H   UNL     1      18.518  -9.863  -0.060 -0.00 -0.00    +0.000 HD
DOCKED: BRANCH  22  24
DOCKED: ATOM     24  C   UNL     1      16.787 -10.782   0.661 -0.32 +0.00    +0.000 A 
DOCKED: ATOM     25  C   UNL     1      16.335 -12.051   0.273 -0.43 +0.00    +0.000 A 
DOCKED: ATOM     26  C   UNL     1      14.970 -12.350   0.273 -0.45 +0.00    +0.000 A 
DOCKED: ATOM     27  C   UNL     1      14.025 -11.375   0.641 -0.35 +0.00    +0.000 A 
DOCKED: ATOM     28  C   UNL     1      14.481 -10.100   1.023 -0.23 +0.00    +0.000 A 
DOCKED: ATOM     29  C   UNL     1      15.847  -9.803   1.023 -0.26 +0.00    +0.000 A 
DOCKED: BRANCH  27  30
DOCKED: ATOM     30  C   UNL     1      12.571 -11.672   0.645 -0.42 +0.00    +0.000 C 
DOCKED: ATOM     31  N   UNL     1      11.958 -12.389   1.722 -0.32 +0.00    +0.000 N 
DOCKED: ATOM     32  O   UNL     1      10.616 -12.556   1.751 -0.59 +0.00    +0.000 OA
DOCKED: ATOM     33  O   UNL     1      11.858 -11.300  -0.327 -0.37 +0.00    +0.000 OA
DOCKED: ATOM     34  H   UNL     1      12.515 -12.760   2.443 -0.55 +0.00    +0.000 HD
DOCKED: ENDBRANCH  27  30
DOCKED: ENDBRANCH  22  24
DOCKED: ENDBRANCH  19  21
DOCKED: ENDBRANCH   1  19
DOCKED: TORSDOF 9
DOCKED: TER
DOCKED: ENDMDL
________________________________________________________________________________


	BEGINNING GENETIC ALGORITHM DOCKING 58 of 100
Run: 58 Seed: 1373842340 751373434 [ Run 58 of 100 GA/GALS ]
Beginning LAMARCKIAN GENETIC ALGORITHM (LGA), with a maximum of 2500000 energy evaluations.

Final-Value: -14.255


	FINAL GENETIC ALGORITHM DOCKED STATE
	_______________________________________________


Detailed state:  trans 19.510 -8.351 -5.073 quatxyzw 0.235503 0.292926 -0.139214 0.916162 center 1.619 0.086 0.013 ntor 9 -133.7287 -143.4912 70.2290 -8.0420 -149.6977 116.2063 117.8347 -71.7591 24.4243
State:	 19.510  -8.351  -5.073   0.588  0.731 -0.347 47.258   -133.73 -143.49   70.23   -8.04 -149.70  116.21  117.83  -71.76   24.42

DOCKED: MODEL       58
DOCKED: USER    Run = 58
DOCKED: USER    DPF = ligand_dock.biased.dpf
DOCKED: USER  
DOCKED: USER    Estimated Free Energy of Binding    =  -10.08 kcal/mol  [=(1)+(2)+(3)-(4)]
DOCKED: USER    Estimated Inhibition Constant, Ki   =   41.04 nM (nanomolar)  [Temperature = 298.15 K]
DOCKED: USER    
DOCKED: USER    (1) Final Intermolecular Energy     =  -12.76 kcal/mol
DOCKED: USER        vdW + Hbond + desolv Energy     =  -12.76 kcal/mol
DOCKED: USER        Electrostatic Energy            =   +0.00 kcal/mol
DOCKED: USER    (2) Final Total Internal Energy     =   -1.49 kcal/mol
DOCKED: USER    (3) Torsional Free Energy           =   +2.68 kcal/mol
DOCKED: USER    (4) Unbound System's Energy  [=(2)] =   -1.49 kcal/mol
DOCKED: USER    
DOCKED: USER    
DOCKED: USER    NEWDPF move ligand.pdbqt
DOCKED: USER    NEWDPF about 1.619000 0.086000 0.013000
DOCKED: USER    NEWDPF tran0 19.509673 -8.350713 -5.072652
DOCKED: USER    NEWDPF quaternion0 0.235503 0.292926 -0.139214 0.916162
DOCKED: USER    NEWDPF axisangle0 0.587569 0.730837 -0.347332 47.257565
DOCKED: USER    NEWDPF quat0 0.587569 0.730837 -0.347332 47.257565
DOCKED: USER    NEWDPF dihe0 -133.73 -143.49 70.23 -8.04 -149.70 116.21 117.83 -71.76 24.42 
DOCKED: USER  keepresnum = 1 
DOCKED: USER  
DOCKED: REMARK  Name = 
DOCKED: REMARK  11 active torsions:
DOCKED: REMARK  status: ('A' for Active; 'I' for Inactive)
DOCKED: REMARK    1  A    between atoms: C_2  and  O_3
DOCKED: REMARK    2  A    between atoms: O_3  and  C_4
DOCKED: REMARK    3  A    between atoms: C_4  and  C_5
DOCKED: REMARK    4  A    between atoms: C_10  and  C_11
DOCKED: REMARK    5  A    between atoms: C_11  and  N_12
DOCKED: REMARK    6  A    between atoms: N_12  and  C_13
DOCKED: REMARK    7  A    between atoms: N_12  and  C_15
DOCKED: REMARK    8  A    between atoms: C_13  and  C_14
DOCKED: REMARK    9  A    between atoms: C_15  and  C_16
DOCKED: REMARK   10  A    between atoms: N_21  and  C_22
DOCKED: REMARK   11  A    between atoms: C_25  and  C_26
DOCKED: REMARK                            x       y       z     vdW  Elec       q    Type
DOCKED: REMARK                         _______ _______ _______ _____ _____    ______ ____
DOCKED: USER                              x       y       z     vdW  Elec       q    Type
DOCKED: USER                           _______ _______ _______ _____ _____    ______ ____
DOCKED: ROOT
DOCKED: ATOM      1  C   UNL     1      21.244  -9.308  -6.420 -0.24 -0.00    +0.000 C 
DOCKED: ENDROOT
DOCKED: BRANCH   1   2
DOCKED: ATOM      2  C   UNL     1      19.947  -9.756  -7.032 -0.19 -0.00    +0.000 A 
DOCKED: ATOM      3  C   UNL     1      19.775  -9.752  -8.424 -0.17 -0.00    +0.000 A 
DOCKED: ATOM      4  C   UNL     1      18.560 -10.153  -8.989 -0.14 -0.00    +0.000 A 
DOCKED: ATOM      5  C   UNL     1      17.496 -10.549  -8.166 -0.23 -0.00    +0.000 A 
DOCKED: ATOM      6  C   UNL     1      16.271 -10.944  -8.723 -0.18 -0.00    +0.000 A 
DOCKED: ATOM      7  C   UNL     1      15.196 -11.307  -7.895 -0.21 -0.00    +0.000 A 
DOCKED: ATOM      8  C   UNL     1      15.371 -11.314  -6.501 -0.25 -0.00    +0.000 A 
DOCKED: ATOM      9  C   UNL     1      16.592 -10.930  -5.938 -0.26 -0.00    +0.000 A 
DOCKED: ATOM     10  C   UNL     1      17.659 -10.541  -6.760 -0.27 -0.00    +0.000 A 
DOCKED: ATOM     11  C   UNL     1      18.884 -10.146  -6.203 -0.24 -0.00    +0.000 A 
DOCKED: BRANCH   7  12
DOCKED: ATOM     12  C   UNL     1      13.886 -11.741  -8.501 -0.18 -0.00    +0.000 C 
DOCKED: BRANCH  12  13
DOCKED: ATOM     13  N   UNL     1      13.089 -12.528  -7.534 -0.23 -0.00    +0.000 N 
DOCKED: ATOM     14  H   UNL     1      13.291 -12.052  -6.654 -0.01 -0.00    +0.000 HD
DOCKED: BRANCH  13  15
DOCKED: ATOM     15  C   UNL     1      11.626 -12.395  -7.701 -0.17 -0.00    +0.000 C 
DOCKED: ATOM     16  C   UNL     1      11.111 -10.966  -7.507 -0.10 -0.00    +0.000 C 
DOCKED: ENDBRANCH  13  15
DOCKED: BRANCH  13  17
DOCKED: ATOM     17  C   UNL     1      13.567 -13.901  -7.231 -0.40 -0.00    +0.000 C 
DOCKED: ATOM     18  C   UNL     1      12.779 -14.631  -6.135 -0.23 -0.00    +0.000 C 
DOCKED: ENDBRANCH  13  17
DOCKED: ENDBRANCH  12  13
DOCKED: ENDBRANCH   7  12
DOCKED: ENDBRANCH   1   2
DOCKED: BRANCH   1  19
DOCKED: ATOM     19  O   UNL     1      20.972  -8.399  -5.359 -0.22 -0.00    +0.000 OA
DOCKED: BRANCH  19  21
DOCKED: ATOM     20  O   UNL     1      21.924  -8.134  -3.274 -0.39 -0.00    +0.000 OA
DOCKED: ATOM     21  C   UNL     1      21.104  -8.748  -4.011 -0.38 -0.00    +0.000 C 
DOCKED: ATOM     22  N   UNL     1      20.331  -9.840  -3.496 -0.37 -0.00    +0.000 N 
DOCKED: ATOM     23  H   UNL     1      19.795 -10.365  -4.133 -0.00 -0.00    +0.000 HD
DOCKED: BRANCH  22  24
DOCKED: ATOM     24  C   UNL     1      20.285 -10.218  -2.110 -0.46 -0.00    +0.000 A 
DOCKED: ATOM     25  C   UNL     1      21.396  -9.968  -1.291 -0.57 -0.00    +0.000 A 
DOCKED: ATOM     26  C   UNL     1      21.389 -10.349   0.053 -0.60 -0.00    +0.000 A 
DOCKED: ATOM     27  C   UNL     1      20.275 -11.010   0.602 -0.61 -0.00    +0.000 A 
DOCKED: ATOM     28  C   UNL     1      19.165 -11.267  -0.223 -0.47 -0.00    +0.000 A 
DOCKED: ATOM     29  C   UNL     1      19.174 -10.884  -1.567 -0.40 -0.00    +0.000 A 
DOCKED: BRANCH  27  30
DOCKED: ATOM     30  C   UNL     1      20.250 -11.426   2.027 -0.77 -0.00    +0.000 C 
DOCKED: ATOM     31  N   UNL     1      20.624 -10.524   3.075 -0.64 -0.00    +0.000 N 
DOCKED: ATOM     32  O   UNL     1      20.494 -10.894   4.369 -0.93 -0.00    +0.000 OA
DOCKED: ATOM     33  O   UNL     1      19.905 -12.602   2.326 -1.65 -0.00    +0.000 OA
DOCKED: ATOM     34  H   UNL     1      20.978  -9.633   2.851 -0.60 -0.00    +0.000 HD
DOCKED: ENDBRANCH  27  30
DOCKED: ENDBRANCH  22  24
DOCKED: ENDBRANCH  19  21
DOCKED: ENDBRANCH   1  19
DOCKED: TORSDOF 9
DOCKED: TER
DOCKED: ENDMDL
________________________________________________________________________________


	BEGINNING GENETIC ALGORITHM DOCKING 59 of 100
Run: 59 Seed: 1988422682 227999204 [ Run 59 of 100 GA/GALS ]
Beginning LAMARCKIAN GENETIC ALGORITHM (LGA), with a maximum of 2500000 energy evaluations.

Final-Value: -16.475


	FINAL GENETIC ALGORITHM DOCKED STATE
	_______________________________________________


Detailed state:  trans 19.747 -11.011 -4.985 quatxyzw 0.301696 0.262335 0.021890 -0.916341 center 1.619 0.086 0.013 ntor 9 -180.0000 -103.3048 -122.7116 -152.1053 139.0607 74.4560 98.4378 -178.5908 147.7536
State:	 19.747 -11.011  -4.985   0.753  0.655  0.055 -47.206   -180.00 -103.30 -122.71 -152.11  139.06   74.46   98.44 -178.59  147.75

DOCKED: MODEL       59
DOCKED: USER    Run = 59
DOCKED: USER    DPF = ligand_dock.biased.dpf
DOCKED: USER  
DOCKED: USER    Estimated Free Energy of Binding    =  -11.26 kcal/mol  [=(1)+(2)+(3)-(4)]
DOCKED: USER    Estimated Inhibition Constant, Ki   =    5.62 nM (nanomolar)  [Temperature = 298.15 K]
DOCKED: USER    
DOCKED: USER    (1) Final Intermolecular Energy     =  -13.94 kcal/mol
DOCKED: USER        vdW + Hbond + desolv Energy     =  -13.94 kcal/mol
DOCKED: USER        Electrostatic Energy            =   +0.00 kcal/mol
DOCKED: USER    (2) Final Total Internal Energy     =   -2.54 kcal/mol
DOCKED: USER    (3) Torsional Free Energy           =   +2.68 kcal/mol
DOCKED: USER    (4) Unbound System's Energy  [=(2)] =   -2.54 kcal/mol
DOCKED: USER    
DOCKED: USER    
DOCKED: USER    NEWDPF move ligand.pdbqt
DOCKED: USER    NEWDPF about 1.619000 0.086000 0.013000
DOCKED: USER    NEWDPF tran0 19.746799 -11.010939 -4.984797
DOCKED: USER    NEWDPF quaternion0 0.301696 0.262335 0.021890 -0.916341
DOCKED: USER    NEWDPF axisangle0 0.753488 0.655185 0.054670 -47.206206
DOCKED: USER    NEWDPF quat0 0.753488 0.655185 0.054670 -47.206206
DOCKED: USER    NEWDPF dihe0 -180.00 -103.30 -122.71 -152.11 139.06 74.46 98.44 -178.59 147.75 
DOCKED: USER  keepresnum = 1 
DOCKED: USER  
DOCKED: REMARK  Name = 
DOCKED: REMARK  11 active torsions:
DOCKED: REMARK  status: ('A' for Active; 'I' for Inactive)
DOCKED: REMARK    1  A    between atoms: C_2  and  O_3
DOCKED: REMARK    2  A    between atoms: O_3  and  C_4
DOCKED: REMARK    3  A    between atoms: C_4  and  C_5
DOCKED: REMARK    4  A    between atoms: C_10  and  C_11
DOCKED: REMARK    5  A    between atoms: C_11  and  N_12
DOCKED: REMARK    6  A    between atoms: N_12  and  C_13
DOCKED: REMARK    7  A    between atoms: N_12  and  C_15
DOCKED: REMARK    8  A    between atoms: C_13  and  C_14
DOCKED: REMARK    9  A    between atoms: C_15  and  C_16
DOCKED: REMARK   10  A    between atoms: N_21  and  C_22
DOCKED: REMARK   11  A    between atoms: C_25  and  C_26
DOCKED: REMARK                            x       y       z     vdW  Elec       q    Type
DOCKED: REMARK                         _______ _______ _______ _____ _____    ______ ____
DOCKED: USER                              x       y       z     vdW  Elec       q    Type
DOCKED: USER                           _______ _______ _______ _____ _____    ______ ____
DOCKED: ROOT
DOCKED: ATOM      1  C   UNL     1      18.858  -9.936  -6.932 -0.23 -0.00    +0.000 C 
DOCKED: ENDROOT
DOCKED: BRANCH   1   2
DOCKED: ATOM      2  C   UNL     1      17.677 -10.262  -6.063 -0.23 -0.00    +0.000 A 
DOCKED: ATOM      3  C   UNL     1      16.894 -11.397  -6.318 -0.30 -0.00    +0.000 A 
DOCKED: ATOM      4  C   UNL     1      15.785 -11.687  -5.516 -0.11 -0.00    +0.000 A 
DOCKED: ATOM      5  C   UNL     1      15.438 -10.836  -4.457 -0.21 -0.00    +0.000 A 
DOCKED: ATOM      6  C   UNL     1      14.321 -11.113  -3.654 -0.27 -0.00    +0.000 A 
DOCKED: ATOM      7  C   UNL     1      13.956 -10.240  -2.616 -0.24 -0.00    +0.000 A 
DOCKED: ATOM      8  C   UNL     1      14.744  -9.106  -2.360 -0.20 -0.00    +0.000 A 
DOCKED: ATOM      9  C   UNL     1      15.863  -8.826  -3.151 -0.11 -0.00    +0.000 A 
DOCKED: ATOM     10  C   UNL     1      16.215  -9.681  -4.204 -0.19 -0.00    +0.000 A 
DOCKED: ATOM     11  C   UNL     1      17.331  -9.403  -5.008 -0.18 -0.00    +0.000 A 
DOCKED: BRANCH   7  12
DOCKED: ATOM     12  C   UNL     1      12.762 -10.551  -1.750 -0.26 -0.00    +0.000 C 
DOCKED: BRANCH  12  13
DOCKED: ATOM     13  N   UNL     1      13.149 -11.396  -0.599 -0.34 +0.00    +0.000 N 
DOCKED: ATOM     14  H   UNL     1      12.757 -12.303  -0.857 -0.02 +0.00    +0.000 HD
DOCKED: BRANCH  13  15
DOCKED: ATOM     15  C   UNL     1      14.602 -11.639  -0.482 -0.41 +0.00    +0.000 C 
DOCKED: ATOM     16  C   UNL     1      15.019 -13.067  -0.842 -0.50 +0.00    +0.000 C 
DOCKED: ENDBRANCH  13  15
DOCKED: BRANCH  13  17
DOCKED: ATOM     17  C   UNL     1      12.447 -11.141   0.685 -0.38 +0.00    +0.000 C 
DOCKED: ATOM     18  C   UNL     1      13.311 -11.324   1.941 -0.41 +0.00    +0.000 C 
DOCKED: ENDBRANCH  13  17
DOCKED: ENDBRANCH  12  13
DOCKED: ENDBRANCH   7  12
DOCKED: ENDBRANCH   1   2
DOCKED: BRANCH   1  19
DOCKED: ATOM     19  O   UNL     1      20.056 -10.269  -6.240 -0.28 -0.00    +0.000 OA
DOCKED: BRANCH  19  21
DOCKED: ATOM     20  O   UNL     1      20.202 -12.042  -4.772 -0.70 -0.00    +0.000 OA
DOCKED: ATOM     21  C   UNL     1      20.062 -10.800  -4.947 -0.45 -0.00    +0.000 C 
DOCKED: ATOM     22  N   UNL     1      19.859  -9.921  -3.833 -0.32 -0.00    +0.000 N 
DOCKED: ATOM     23  H   UNL     1      19.636  -8.981  -4.023 -0.00 -0.00    +0.000 HD
DOCKED: BRANCH  22  24
DOCKED: ATOM     24  C   UNL     1      19.961 -10.320  -2.456 -0.42 -0.00    +0.000 A 
DOCKED: ATOM     25  C   UNL     1      18.978 -11.156  -1.907 -0.33 -0.00    +0.000 A 
DOCKED: ATOM     26  C   UNL     1      19.039 -11.538  -0.564 -0.42 -0.00    +0.000 A 
DOCKED: ATOM     27  C   UNL     1      20.076 -11.072   0.265 -0.57 -0.00    +0.000 A 
DOCKED: ATOM     28  C   UNL     1      21.057 -10.229  -0.286 -0.62 -0.00    +0.000 A 
DOCKED: ATOM     29  C   UNL     1      20.995  -9.848  -1.630 -0.55 -0.00    +0.000 A 
DOCKED: BRANCH  27  30
DOCKED: ATOM     30  C   UNL     1      20.156 -11.465   1.694 -0.76 -0.00    +0.000 C 
DOCKED: ATOM     31  N   UNL     1      20.638 -10.559   2.692 -0.62 -0.00    +0.000 N 
DOCKED: ATOM     32  O   UNL     1      20.604 -10.905   3.999 -1.09 -0.00    +0.000 OA
DOCKED: ATOM     33  O   UNL     1      19.806 -12.627   2.040 -1.64 -0.00    +0.000 OA
DOCKED: ATOM     34  H   UNL     1      20.996  -9.682   2.426 -0.57 -0.00    +0.000 HD
DOCKED: ENDBRANCH  27  30
DOCKED: ENDBRANCH  22  24
DOCKED: ENDBRANCH  19  21
DOCKED: ENDBRANCH   1  19
DOCKED: TORSDOF 9
DOCKED: TER
DOCKED: ENDMDL
________________________________________________________________________________


	BEGINNING GENETIC ALGORITHM DOCKING 60 of 100
Run: 60 Seed: 1108057469 1976969887 [ Run 60 of 100 GA/GALS ]
Beginning LAMARCKIAN GENETIC ALGORITHM (LGA), with a maximum of 2500000 energy evaluations.

Final-Value: -14.936


	FINAL GENETIC ALGORITHM DOCKED STATE
	_______________________________________________


Detailed state:  trans 14.862 -10.933 -2.682 quatxyzw -0.126592 0.223020 -0.950960 0.172948 center 1.619 0.086 0.013 ntor 9 40.3235 -180.0000 -173.7518 38.4382 137.6007 -148.6521 -109.1026 -152.4644 -14.6349
State:	 14.862 -10.933  -2.682  -0.129  0.226 -0.966 160.081     40.32 -180.00 -173.75   38.44  137.60 -148.65 -109.10 -152.46  -14.63

DOCKED: MODEL       60
DOCKED: USER    Run = 60
DOCKED: USER    DPF = ligand_dock.biased.dpf
DOCKED: USER  
DOCKED: USER    Estimated Free Energy of Binding    =   -9.91 kcal/mol  [=(1)+(2)+(3)-(4)]
DOCKED: USER    Estimated Inhibition Constant, Ki   =   53.98 nM (nanomolar)  [Temperature = 298.15 K]
DOCKED: USER    
DOCKED: USER    (1) Final Intermolecular Energy     =  -12.60 kcal/mol
DOCKED: USER        vdW + Hbond + desolv Energy     =  -12.60 kcal/mol
DOCKED: USER        Electrostatic Energy            =   +0.00 kcal/mol
DOCKED: USER    (2) Final Total Internal Energy     =   -2.34 kcal/mol
DOCKED: USER    (3) Torsional Free Energy           =   +2.68 kcal/mol
DOCKED: USER    (4) Unbound System's Energy  [=(2)] =   -2.34 kcal/mol
DOCKED: USER    
DOCKED: USER    
DOCKED: USER    NEWDPF move ligand.pdbqt
DOCKED: USER    NEWDPF about 1.619000 0.086000 0.013000
DOCKED: USER    NEWDPF tran0 14.861712 -10.932596 -2.681536
DOCKED: USER    NEWDPF quaternion0 -0.126592 0.223020 -0.950960 0.172948
DOCKED: USER    NEWDPF axisangle0 -0.128529 0.226432 -0.965510 160.081451
DOCKED: USER    NEWDPF quat0 -0.128529 0.226432 -0.965510 160.081451
DOCKED: USER    NEWDPF dihe0 40.32 -180.00 -173.75 38.44 137.60 -148.65 -109.10 -152.46 -14.63 
DOCKED: USER  keepresnum = 1 
DOCKED: USER  
DOCKED: REMARK  Name = 
DOCKED: REMARK  11 active torsions:
DOCKED: REMARK  status: ('A' for Active; 'I' for Inactive)
DOCKED: REMARK    1  A    between atoms: C_2  and  O_3
DOCKED: REMARK    2  A    between atoms: O_3  and  C_4
DOCKED: REMARK    3  A    between atoms: C_4  and  C_5
DOCKED: REMARK    4  A    between atoms: C_10  and  C_11
DOCKED: REMARK    5  A    between atoms: C_11  and  N_12
DOCKED: REMARK    6  A    between atoms: N_12  and  C_13
DOCKED: REMARK    7  A    between atoms: N_12  and  C_15
DOCKED: REMARK    8  A    between atoms: C_13  and  C_14
DOCKED: REMARK    9  A    between atoms: C_15  and  C_16
DOCKED: REMARK   10  A    between atoms: N_21  and  C_22
DOCKED: REMARK   11  A    between atoms: C_25  and  C_26
DOCKED: REMARK                            x       y       z     vdW  Elec       q    Type
DOCKED: REMARK                         _______ _______ _______ _____ _____    ______ ____
DOCKED: USER                              x       y       z     vdW  Elec       q    Type
DOCKED: USER                           _______ _______ _______ _____ _____    ______ ____
DOCKED: ROOT
DOCKED: ATOM      1  C   UNL     1      14.278  -9.463  -4.481 -0.16 -0.00    +0.000 C 
DOCKED: ENDROOT
DOCKED: BRANCH   1   2
DOCKED: ATOM      2  C   UNL     1      15.627 -10.027  -4.826 -0.18 -0.00    +0.000 A 
DOCKED: ATOM      3  C   UNL     1      15.744 -11.109  -5.710 -0.24 -0.00    +0.000 A 
DOCKED: ATOM      4  C   UNL     1      17.001 -11.642  -6.014 -0.19 -0.00    +0.000 A 
DOCKED: ATOM      5  C   UNL     1      18.156 -11.107  -5.426 -0.30 -0.00    +0.000 A 
DOCKED: ATOM      6  C   UNL     1      19.420 -11.641  -5.718 -0.31 -0.00    +0.000 A 
DOCKED: ATOM      7  C   UNL     1      20.571 -11.125  -5.100 -0.45 -0.00    +0.000 A 
DOCKED: ATOM      8  C   UNL     1      20.452 -10.039  -4.218 -0.37 -0.00    +0.000 A 
DOCKED: ATOM      9  C   UNL     1      19.197  -9.495  -3.927 -0.26 -0.00    +0.000 A 
DOCKED: ATOM     10  C   UNL     1      18.043 -10.025  -4.522 -0.24 -0.00    +0.000 A 
DOCKED: ATOM     11  C   UNL     1      16.779  -9.490  -4.229 -0.19 -0.00    +0.000 A 
DOCKED: BRANCH   7  12
DOCKED: ATOM     12  C   UNL     1      21.927 -11.697  -5.427 -0.57 -0.00    +0.000 C 
DOCKED: BRANCH  12  13
DOCKED: ATOM     13  N   UNL     1      22.507 -11.037  -6.617 -0.41 -0.00    +0.000 N 
DOCKED: ATOM     14  H   UNL     1      22.928 -10.199  -6.213 -0.02 -0.00    +0.000 HD
DOCKED: BRANCH  13  15
DOCKED: ATOM     15  C   UNL     1      23.641 -11.765  -7.225 -0.51 -0.00    +0.000 C 
DOCKED: ATOM     16  C   UNL     1      23.336 -12.334  -8.613 -0.45 -0.00    +0.000 C 
DOCKED: ENDBRANCH  13  15
DOCKED: BRANCH  13  17
DOCKED: ATOM     17  C   UNL     1      21.553 -10.436  -7.584 -0.29 -0.00    +0.000 C 
DOCKED: ATOM     18  C   UNL     1      21.971  -9.068  -8.138 -0.14 -0.00    +0.000 C 
DOCKED: ENDBRANCH  13  17
DOCKED: ENDBRANCH  12  13
DOCKED: ENDBRANCH   7  12
DOCKED: ENDBRANCH   1   2
DOCKED: BRANCH   1  19
DOCKED: ATOM     19  O   UNL     1      13.798 -10.088  -3.296 -0.23 -0.00    +0.000 OA
DOCKED: BRANCH  19  21
DOCKED: ATOM     20  O   UNL     1      14.726 -11.899  -2.210 -0.40 -0.00    +0.000 OA
DOCKED: ATOM     21  C   UNL     1      14.647 -10.646  -2.336 -0.31 -0.00    +0.000 C 
DOCKED: ATOM     22  N   UNL     1      15.388  -9.774  -1.471 -0.25 -0.00    +0.000 N 
DOCKED: ATOM     23  H   UNL     1      15.205  -8.808  -1.526 -0.02 -0.00    +0.000 HD
DOCKED: BRANCH  22  24
DOCKED: ATOM     24  C   UNL     1      16.380 -10.217  -0.530 -0.21 -0.00    +0.000 A 
DOCKED: ATOM     25  C   UNL     1      17.570 -10.788  -1.002 -0.29 -0.00    +0.000 A 
DOCKED: ATOM     26  C   UNL     1      18.540 -11.251  -0.109 -0.43 -0.00    +0.000 A 
DOCKED: ATOM     27  C   UNL     1      18.328 -11.171   1.280 -0.46 -0.00    +0.000 A 
DOCKED: ATOM     28  C   UNL     1      17.130 -10.604   1.751 -0.38 +0.00    +0.000 A 
DOCKED: ATOM     29  C   UNL     1      16.161 -10.142   0.856 -0.27 +0.00    +0.000 A 
DOCKED: BRANCH  27  30
DOCKED: ATOM     30  C   UNL     1      19.345 -11.660   2.244 -0.70 -0.00    +0.000 C 
DOCKED: ATOM     31  N   UNL     1      19.304 -11.287   3.626 -0.63 -0.00    +0.000 N 
DOCKED: ATOM     32  O   UNL     1      20.180 -11.827   4.503 -0.93 -0.00    +0.000 OA
DOCKED: ATOM     33  O   UNL     1      20.276 -12.410   1.840 -1.81 -0.00    +0.000 OA
DOCKED: ATOM     34  H   UNL     1      18.636 -10.635   3.938 -0.01 -0.00    +0.000 HD
DOCKED: ENDBRANCH  27  30
DOCKED: ENDBRANCH  22  24
DOCKED: ENDBRANCH  19  21
DOCKED: ENDBRANCH   1  19
DOCKED: TORSDOF 9
DOCKED: TER
DOCKED: ENDMDL
________________________________________________________________________________


	BEGINNING GENETIC ALGORITHM DOCKING 61 of 100
Run: 61 Seed: 1772470199 2007121547 [ Run 61 of 100 GA/GALS ]
Beginning LAMARCKIAN GENETIC ALGORITHM (LGA), with a maximum of 2500000 energy evaluations.

Final-Value: -14.019


	FINAL GENETIC ALGORITHM DOCKED STATE
	_______________________________________________


Detailed state:  trans 16.435 -8.744 2.857 quatxyzw 0.242275 0.807182 0.458134 0.282618 center 1.619 0.086 0.013 ntor 9 -75.9164 90.9548 99.1000 -85.8566 -90.2282 148.2565 -10.6252 -28.0730 -3.8696
State:	 16.435  -8.744   2.857   0.253  0.841  0.478 147.167    -75.92   90.95   99.10  -85.86  -90.23  148.26  -10.63  -28.07   -3.87

DOCKED: MODEL       61
DOCKED: USER    Run = 61
DOCKED: USER    DPF = ligand_dock.biased.dpf
DOCKED: USER  
DOCKED: USER    Estimated Free Energy of Binding    =  -10.39 kcal/mol  [=(1)+(2)+(3)-(4)]
DOCKED: USER    Estimated Inhibition Constant, Ki   =   24.37 nM (nanomolar)  [Temperature = 298.15 K]
DOCKED: USER    
DOCKED: USER    (1) Final Intermolecular Energy     =  -13.07 kcal/mol
DOCKED: USER        vdW + Hbond + desolv Energy     =  -13.07 kcal/mol
DOCKED: USER        Electrostatic Energy            =   +0.00 kcal/mol
DOCKED: USER    (2) Final Total Internal Energy     =   -0.95 kcal/mol
DOCKED: USER    (3) Torsional Free Energy           =   +2.68 kcal/mol
DOCKED: USER    (4) Unbound System's Energy  [=(2)] =   -0.95 kcal/mol
DOCKED: USER    
DOCKED: USER    
DOCKED: USER    NEWDPF move ligand.pdbqt
DOCKED: USER    NEWDPF about 1.619000 0.086000 0.013000
DOCKED: USER    NEWDPF tran0 16.435361 -8.743520 2.856533
DOCKED: USER    NEWDPF quaternion0 0.242275 0.807182 0.458134 0.282618
DOCKED: USER    NEWDPF axisangle0 0.252572 0.841487 0.477605 147.166989
DOCKED: USER    NEWDPF quat0 0.252572 0.841487 0.477605 147.166989
DOCKED: USER    NEWDPF dihe0 -75.92 90.95 99.10 -85.86 -90.23 148.26 -10.63 -28.07 -3.87 
DOCKED: USER  keepresnum = 1 
DOCKED: USER  
DOCKED: REMARK  Name = 
DOCKED: REMARK  11 active torsions:
DOCKED: REMARK  status: ('A' for Active; 'I' for Inactive)
DOCKED: REMARK    1  A    between atoms: C_2  and  O_3
DOCKED: REMARK    2  A    between atoms: O_3  and  C_4
DOCKED: REMARK    3  A    between atoms: C_4  and  C_5
DOCKED: REMARK    4  A    between atoms: C_10  and  C_11
DOCKED: REMARK    5  A    between atoms: C_11  and  N_12
DOCKED: REMARK    6  A    between atoms: N_12  and  C_13
DOCKED: REMARK    7  A    between atoms: N_12  and  C_15
DOCKED: REMARK    8  A    between atoms: C_13  and  C_14
DOCKED: REMARK    9  A    between atoms: C_15  and  C_16
DOCKED: REMARK   10  A    between atoms: N_21  and  C_22
DOCKED: REMARK   11  A    between atoms: C_25  and  C_26
DOCKED: REMARK                            x       y       z     vdW  Elec       q    Type
DOCKED: REMARK                         _______ _______ _______ _____ _____    ______ ____
DOCKED: USER                              x       y       z     vdW  Elec       q    Type
DOCKED: USER                           _______ _______ _______ _____ _____    ______ ____
DOCKED: ROOT
DOCKED: ATOM      1  C   UNL     1      16.514 -10.903   3.889 -0.46 +0.00    +0.000 C 
DOCKED: ENDROOT
DOCKED: BRANCH   1   2
DOCKED: ATOM      2  C   UNL     1      17.602 -10.899   2.854 -0.44 +0.00    +0.000 A 
DOCKED: ATOM      3  C   UNL     1      18.951 -10.870   3.235 -0.51 -0.00    +0.000 A 
DOCKED: ATOM      4  C   UNL     1      19.960 -10.847   2.267 -0.63 -0.00    +0.000 A 
DOCKED: ATOM      5  C   UNL     1      19.631 -10.839   0.904 -0.56 -0.00    +0.000 A 
DOCKED: ATOM      6  C   UNL     1      20.636 -10.807  -0.075 -0.59 -0.00    +0.000 A 
DOCKED: ATOM      7  C   UNL     1      20.302 -10.763  -1.438 -0.42 -0.00    +0.000 A 
DOCKED: ATOM      8  C   UNL     1      18.950 -10.796  -1.818 -0.37 -0.00    +0.000 A 
DOCKED: ATOM      9  C   UNL     1      17.942 -10.836  -0.850 -0.32 -0.00    +0.000 A 
DOCKED: ATOM     10  C   UNL     1      18.271 -10.853   0.513 -0.39 -0.00    +0.000 A 
DOCKED: ATOM     11  C   UNL     1      17.265 -10.884   1.491 -0.39 +0.00    +0.000 A 
DOCKED: BRANCH   7  12
DOCKED: ATOM     12  C   UNL     1      21.388 -10.740  -2.483 -0.44 -0.00    +0.000 C 
DOCKED: BRANCH  12  13
DOCKED: ATOM     13  N   UNL     1      21.029  -9.839  -3.600 -0.43 -0.00    +0.000 N 
DOCKED: ATOM     14  H   UNL     1      20.037 -10.040  -3.728 -0.00 -0.00    +0.000 HD
DOCKED: BRANCH  13  15
DOCKED: ATOM     15  C   UNL     1      21.076  -8.401  -3.260 -0.42 -0.00    +0.000 C 
DOCKED: ATOM     16  C   UNL     1      21.399  -8.125  -1.790 -0.49 -0.00    +0.000 C 
DOCKED: ENDBRANCH  13  15
DOCKED: BRANCH  13  17
DOCKED: ATOM     17  C   UNL     1      21.564 -10.188  -4.941 -0.44 -0.00    +0.000 C 
DOCKED: ATOM     18  C   UNL     1      21.344 -11.647  -5.364 -0.54 -0.00    +0.000 C 
DOCKED: ENDBRANCH  13  17
DOCKED: ENDBRANCH  12  13
DOCKED: ENDBRANCH   7  12
DOCKED: ENDBRANCH   1   2
DOCKED: BRANCH   1  19
DOCKED: ATOM     19  O   UNL     1      15.927  -9.609   3.959 -0.46 +0.00    +0.000 OA
DOCKED: BRANCH  19  21
DOCKED: ATOM     20  O   UNL     1      13.799 -10.381   4.403 -0.35 +0.00    +0.000 OA
DOCKED: ATOM     21  C   UNL     1      14.590  -9.402   4.309 -0.43 +0.00    +0.000 C 
DOCKED: ATOM     22  N   UNL     1      14.123  -8.061   4.513 -0.32 +0.00    +0.000 N 
DOCKED: ATOM     23  H   UNL     1      14.743  -7.322   4.314 -0.01 +0.00    +0.000 HD
DOCKED: BRANCH  22  24
DOCKED: ATOM     24  C   UNL     1      12.810  -7.723   4.990 -0.28 +0.00    +0.000 A 
DOCKED: ATOM     25  C   UNL     1      11.923  -8.749   5.350 -0.27 +0.00    +0.000 A 
DOCKED: ATOM     26  C   UNL     1      10.632  -8.450   5.792 -0.28 +0.00    +0.000 A 
DOCKED: ATOM     27  C   UNL     1      10.192  -7.115   5.862 -0.20 +0.00    +0.000 A 
DOCKED: ATOM     28  C   UNL     1      11.081  -6.089   5.495 -0.21 +0.00    +0.000 A 
DOCKED: ATOM     29  C   UNL     1      12.373  -6.390   5.053 -0.23 +0.00    +0.000 A 
DOCKED: BRANCH  27  30
DOCKED: ATOM     30  C   UNL     1       8.823  -6.778   6.327 -0.33 +0.00    +0.000 C 
DOCKED: ATOM     31  N   UNL     1       8.477  -6.808   7.716 -0.49 +0.00    +0.000 N 
DOCKED: ATOM     32  O   UNL     1       7.254  -6.397   8.121 -1.10 +0.00    +0.000 OA
DOCKED: ATOM     33  O   UNL     1       7.938  -6.471   5.482 -0.21 +0.00    +0.000 OA
DOCKED: ATOM     34  H   UNL     1       9.131  -7.129   8.377 -0.05 +0.00    +0.000 HD
DOCKED: ENDBRANCH  27  30
DOCKED: ENDBRANCH  22  24
DOCKED: ENDBRANCH  19  21
DOCKED: ENDBRANCH   1  19
DOCKED: TORSDOF 9
DOCKED: TER
DOCKED: ENDMDL
________________________________________________________________________________


	BEGINNING GENETIC ALGORITHM DOCKING 62 of 100
Run: 62 Seed: 486505330 690317354 [ Run 62 of 100 GA/GALS ]
Beginning LAMARCKIAN GENETIC ALGORITHM (LGA), with a maximum of 2500000 energy evaluations.

Final-Value: -14.509


	FINAL GENETIC ALGORITHM DOCKED STATE
	_______________________________________________


Detailed state:  trans 20.931 -7.158 -3.752 quatxyzw 0.115322 0.346520 -0.566218 -0.738933 center 1.619 0.086 0.013 ntor 9 143.1469 -179.1894 -167.0856 154.6675 158.3169 151.3382 60.6997 -107.7362 77.7933
State:	 20.931  -7.158  -3.752   0.171  0.514 -0.840 -84.719    143.15 -179.19 -167.09  154.67  158.32  151.34   60.70 -107.74   77.79

DOCKED: MODEL       62
DOCKED: USER    Run = 62
DOCKED: USER    DPF = ligand_dock.biased.dpf
DOCKED: USER  
DOCKED: USER    Estimated Free Energy of Binding    =  -10.26 kcal/mol  [=(1)+(2)+(3)-(4)]
DOCKED: USER    Estimated Inhibition Constant, Ki   =   29.91 nM (nanomolar)  [Temperature = 298.15 K]
DOCKED: USER    
DOCKED: USER    (1) Final Intermolecular Energy     =  -12.95 kcal/mol
DOCKED: USER        vdW + Hbond + desolv Energy     =  -12.95 kcal/mol
DOCKED: USER        Electrostatic Energy            =   +0.00 kcal/mol
DOCKED: USER    (2) Final Total Internal Energy     =   -1.56 kcal/mol
DOCKED: USER    (3) Torsional Free Energy           =   +2.68 kcal/mol
DOCKED: USER    (4) Unbound System's Energy  [=(2)] =   -1.56 kcal/mol
DOCKED: USER    
DOCKED: USER    
DOCKED: USER    NEWDPF move ligand.pdbqt
DOCKED: USER    NEWDPF about 1.619000 0.086000 0.013000
DOCKED: USER    NEWDPF tran0 20.930748 -7.158296 -3.751860
DOCKED: USER    NEWDPF quaternion0 0.115322 0.346520 -0.566218 -0.738933
DOCKED: USER    NEWDPF axisangle0 0.171157 0.514293 -0.840362 -84.718716
DOCKED: USER    NEWDPF quat0 0.171157 0.514293 -0.840362 -84.718716
DOCKED: USER    NEWDPF dihe0 143.15 -179.19 -167.09 154.67 158.32 151.34 60.70 -107.74 77.79 
DOCKED: USER  keepresnum = 1 
DOCKED: USER  
DOCKED: REMARK  Name = 
DOCKED: REMARK  11 active torsions:
DOCKED: REMARK  status: ('A' for Active; 'I' for Inactive)
DOCKED: REMARK    1  A    between atoms: C_2  and  O_3
DOCKED: REMARK    2  A    between atoms: O_3  and  C_4
DOCKED: REMARK    3  A    between atoms: C_4  and  C_5
DOCKED: REMARK    4  A    between atoms: C_10  and  C_11
DOCKED: REMARK    5  A    between atoms: C_11  and  N_12
DOCKED: REMARK    6  A    between atoms: N_12  and  C_13
DOCKED: REMARK    7  A    between atoms: N_12  and  C_15
DOCKED: REMARK    8  A    between atoms: C_13  and  C_14
DOCKED: REMARK    9  A    between atoms: C_15  and  C_16
DOCKED: REMARK   10  A    between atoms: N_21  and  C_22
DOCKED: REMARK   11  A    between atoms: C_25  and  C_26
DOCKED: REMARK                            x       y       z     vdW  Elec       q    Type
DOCKED: REMARK                         _______ _______ _______ _____ _____    ______ ____
DOCKED: USER                              x       y       z     vdW  Elec       q    Type
DOCKED: USER                           _______ _______ _______ _____ _____    ______ ____
DOCKED: ROOT
DOCKED: ATOM      1  C   UNL     1      19.779  -6.217  -5.630 -0.11 -0.00    +0.000 C 
DOCKED: ENDROOT
DOCKED: BRANCH   1   2
DOCKED: ATOM      2  C   UNL     1      19.751  -5.167  -4.557 -0.13 -0.00    +0.000 A 
DOCKED: ATOM      3  C   UNL     1      18.944  -4.028  -4.693 -0.10 -0.00    +0.000 A 
DOCKED: ATOM      4  C   UNL     1      18.934  -3.044  -3.699 -0.11 -0.00    +0.000 A 
DOCKED: ATOM      5  C   UNL     1      19.745  -3.180  -2.563 -0.17 -0.00    +0.000 A 
DOCKED: ATOM      6  C   UNL     1      19.749  -2.193  -1.565 -0.16 -0.00    +0.000 A 
DOCKED: ATOM      7  C   UNL     1      20.588  -2.317  -0.446 -0.29 -0.00    +0.000 A 
DOCKED: ATOM      8  C   UNL     1      21.393  -3.459  -0.310 -0.26 +0.00    +0.000 A 
DOCKED: ATOM      9  C   UNL     1      21.390  -4.451  -1.295 -0.38 +0.00    +0.000 A 
DOCKED: ATOM     10  C   UNL     1      20.573  -4.319  -2.427 -0.28 -0.00    +0.000 A 
DOCKED: ATOM     11  C   UNL     1      20.570  -5.306  -3.425 -0.23 -0.00    +0.000 A 
DOCKED: BRANCH   7  12
DOCKED: ATOM     12  C   UNL     1      20.578  -1.258   0.627 -0.30 -0.00    +0.000 C 
DOCKED: BRANCH  12  13
DOCKED: ATOM     13  N   UNL     1      19.912  -1.750   1.852 -0.41 -0.00    +0.000 N 
DOCKED: ATOM     14  H   UNL     1      19.674  -0.881   2.332 -0.00 -0.00    +0.000 HD
DOCKED: BRANCH  13  15
DOCKED: ATOM     15  C   UNL     1      18.610  -2.409   1.614 -0.37 -0.00    +0.000 C 
DOCKED: ATOM     16  C   UNL     1      17.581  -2.158   2.718 -0.47 -0.00    +0.000 C 
DOCKED: ENDBRANCH  13  15
DOCKED: BRANCH  13  17
DOCKED: ATOM     17  C   UNL     1      20.774  -2.407   2.868 -0.70 -0.00    +0.000 C 
DOCKED: ATOM     18  C   UNL     1      20.446  -2.046   4.323 -0.77 -0.00    +0.000 C 
DOCKED: ENDBRANCH  13  17
DOCKED: ENDBRANCH  12  13
DOCKED: ENDBRANCH   7  12
DOCKED: ENDBRANCH   1   2
DOCKED: BRANCH   1  19
DOCKED: ATOM     19  O   UNL     1      20.568  -7.317  -5.189 -0.16 -0.00    +0.000 OA
DOCKED: BRANCH  19  21
DOCKED: ATOM     20  O   UNL     1      19.109  -8.875  -4.314 -0.24 -0.00    +0.000 OA
DOCKED: ATOM     21  C   UNL     1      20.157  -8.185  -4.174 -0.27 -0.00    +0.000 C 
DOCKED: ATOM     22  N   UNL     1      20.915  -8.244  -2.958 -0.40 -0.00    +0.000 N 
DOCKED: ATOM     23  H   UNL     1      21.655  -7.603  -2.846 -0.03 -0.00    +0.000 HD
DOCKED: BRANCH  22  24
DOCKED: ATOM     24  C   UNL     1      20.668  -9.176  -1.893 -0.44 -0.00    +0.000 A 
DOCKED: ATOM     25  C   UNL     1      19.714 -10.188  -2.071 -0.39 -0.00    +0.000 A 
DOCKED: ATOM     26  C   UNL     1      19.436 -11.092  -1.043 -0.40 -0.00    +0.000 A 
DOCKED: ATOM     27  C   UNL     1      20.092 -10.988   0.197 -0.57 -0.00    +0.000 A 
DOCKED: ATOM     28  C   UNL     1      21.044  -9.968   0.376 -0.56 -0.00    +0.000 A 
DOCKED: ATOM     29  C   UNL     1      21.322  -9.065  -0.654 -0.49 -0.00    +0.000 A 
DOCKED: BRANCH  27  30
DOCKED: ATOM     30  C   UNL     1      19.808 -11.937   1.303 -0.72 -0.00    +0.000 C 
DOCKED: ATOM     31  N   UNL     1      20.609 -11.962   2.490 -0.69 -0.00    +0.000 N 
DOCKED: ATOM     32  O   UNL     1      20.266 -12.764   3.524 -1.26 -0.00    +0.000 OA
DOCKED: ATOM     33  O   UNL     1      18.850 -12.750   1.193 -0.93 -0.00    +0.000 OA
DOCKED: ATOM     34  H   UNL     1      21.410 -11.395   2.553 -0.15 -0.00    +0.000 HD
DOCKED: ENDBRANCH  27  30
DOCKED: ENDBRANCH  22  24
DOCKED: ENDBRANCH  19  21
DOCKED: ENDBRANCH   1  19
DOCKED: TORSDOF 9
DOCKED: TER
DOCKED: ENDMDL
________________________________________________________________________________


	BEGINNING GENETIC ALGORITHM DOCKING 63 of 100
Run: 63 Seed: 752662811 1555885209 [ Run 63 of 100 GA/GALS ]
Beginning LAMARCKIAN GENETIC ALGORITHM (LGA), with a maximum of 2500000 energy evaluations.

Final-Value: -15.893


	FINAL GENETIC ALGORITHM DOCKED STATE
	_______________________________________________


Detailed state:  trans 22.731 -9.099 -5.419 quatxyzw 0.243043 0.355118 0.902414 -0.021690 center 1.619 0.086 0.013 ntor 9 -165.1960 55.1803 67.0435 156.9316 153.1588 -127.2680 33.2258 84.7009 38.6195
State:	 22.731  -9.099  -5.419   0.243  0.355  0.903 -177.514   -165.20   55.18   67.04  156.93  153.16 -127.27   33.23   84.70   38.62

DOCKED: MODEL       63
DOCKED: USER    Run = 63
DOCKED: USER    DPF = ligand_dock.biased.dpf
DOCKED: USER  
DOCKED: USER    Estimated Free Energy of Binding    =  -11.60 kcal/mol  [=(1)+(2)+(3)-(4)]
DOCKED: USER    Estimated Inhibition Constant, Ki   =    3.14 nM (nanomolar)  [Temperature = 298.15 K]
DOCKED: USER    
DOCKED: USER    (1) Final Intermolecular Energy     =  -14.28 kcal/mol
DOCKED: USER        vdW + Hbond + desolv Energy     =  -14.28 kcal/mol
DOCKED: USER        Electrostatic Energy            =   +0.00 kcal/mol
DOCKED: USER    (2) Final Total Internal Energy     =   -1.61 kcal/mol
DOCKED: USER    (3) Torsional Free Energy           =   +2.68 kcal/mol
DOCKED: USER    (4) Unbound System's Energy  [=(2)] =   -1.61 kcal/mol
DOCKED: USER    
DOCKED: USER    
DOCKED: USER    NEWDPF move ligand.pdbqt
DOCKED: USER    NEWDPF about 1.619000 0.086000 0.013000
DOCKED: USER    NEWDPF tran0 22.731255 -9.099060 -5.419221
DOCKED: USER    NEWDPF quaternion0 0.243043 0.355118 0.902414 -0.021690
DOCKED: USER    NEWDPF axisangle0 0.243100 0.355201 0.902626 -177.514331
DOCKED: USER    NEWDPF quat0 0.243100 0.355201 0.902626 -177.514331
DOCKED: USER    NEWDPF dihe0 -165.20 55.18 67.04 156.93 153.16 -127.27 33.23 84.70 38.62 
DOCKED: USER  keepresnum = 1 
DOCKED: USER  
DOCKED: REMARK  Name = 
DOCKED: REMARK  11 active torsions:
DOCKED: REMARK  status: ('A' for Active; 'I' for Inactive)
DOCKED: REMARK    1  A    between atoms: C_2  and  O_3
DOCKED: REMARK    2  A    between atoms: O_3  and  C_4
DOCKED: REMARK    3  A    between atoms: C_4  and  C_5
DOCKED: REMARK    4  A    between atoms: C_10  and  C_11
DOCKED: REMARK    5  A    between atoms: C_11  and  N_12
DOCKED: REMARK    6  A    between atoms: N_12  and  C_13
DOCKED: REMARK    7  A    between atoms: N_12  and  C_15
DOCKED: REMARK    8  A    between atoms: C_13  and  C_14
DOCKED: REMARK    9  A    between atoms: C_15  and  C_16
DOCKED: REMARK   10  A    between atoms: N_21  and  C_22
DOCKED: REMARK   11  A    between atoms: C_25  and  C_26
DOCKED: REMARK                            x       y       z     vdW  Elec       q    Type
DOCKED: REMARK                         _______ _______ _______ _____ _____    ______ ____
DOCKED: USER                              x       y       z     vdW  Elec       q    Type
DOCKED: USER                           _______ _______ _______ _____ _____    ______ ____
DOCKED: ROOT
DOCKED: ATOM      1  C   UNL     1      21.307 -10.259  -6.957 -0.30 -0.00    +0.000 C 
DOCKED: ENDROOT
DOCKED: BRANCH   1   2
DOCKED: ATOM      2  C   UNL     1      22.713 -10.521  -7.415 -0.30 -0.00    +0.000 A 
DOCKED: ATOM      3  C   UNL     1      23.032 -11.701  -8.103 -0.38 -0.00    +0.000 A 
DOCKED: ATOM      4  C   UNL     1      24.347 -11.948  -8.512 -0.41 -0.00    +0.000 A 
DOCKED: ATOM      5  C   UNL     1      25.361 -11.025  -8.224 -0.36 -0.00    +0.000 A 
DOCKED: ATOM      6  C   UNL     1      26.685 -11.269  -8.622 -0.29 -0.00    +0.000 A 
DOCKED: ATOM      7  C   UNL     1      27.704 -10.358  -8.302 -0.40 -0.00    +0.000 A 
DOCKED: ATOM      8  C   UNL     1      27.382  -9.176  -7.616 -0.34 -0.00    +0.000 A 
DOCKED: ATOM      9  C   UNL     1      26.065  -8.920  -7.223 -0.29 -0.00    +0.000 A 
DOCKED: ATOM     10  C   UNL     1      25.049  -9.840  -7.518 -0.26 -0.00    +0.000 A 
DOCKED: ATOM     11  C   UNL     1      23.726  -9.595  -7.119 -0.22 -0.00    +0.000 A 
DOCKED: BRANCH   7  12
DOCKED: ATOM     12  C   UNL     1      29.122 -10.623  -8.743 -0.32 -0.00    +0.000 C 
DOCKED: BRANCH  12  13
DOCKED: ATOM     13  N   UNL     1      29.471  -9.802  -9.923 -0.23 -0.00    +0.000 N 
DOCKED: ATOM     14  H   UNL     1      30.248 -10.328 -10.327 -0.06 -0.00    +0.000 HD
DOCKED: BRANCH  13  15
DOCKED: ATOM     15  C   UNL     1      28.441  -9.790 -10.983 -0.16 -0.00    +0.000 C 
DOCKED: ATOM     16  C   UNL     1      28.654 -10.854 -12.062 -0.21 -0.00    +0.000 C 
DOCKED: ENDBRANCH  13  15
DOCKED: BRANCH  13  17
DOCKED: ATOM     17  C   UNL     1      30.122  -8.493  -9.660 -0.12 -0.00    +0.000 C 
DOCKED: ATOM     18  C   UNL     1      30.641  -8.306  -8.228 -0.19 -0.00    +0.000 C 
DOCKED: ENDBRANCH  13  17
DOCKED: ENDBRANCH  12  13
DOCKED: ENDBRANCH   7  12
DOCKED: ENDBRANCH   1   2
DOCKED: BRANCH   1  19
DOCKED: ATOM     19  O   UNL     1      21.340  -9.533  -5.733 -0.29 -0.00    +0.000 OA
DOCKED: BRANCH  19  21
DOCKED: ATOM     20  O   UNL     1      21.687 -11.303  -4.295 -0.58 -0.00    +0.000 OA
DOCKED: ATOM     21  C   UNL     1      21.214 -10.149  -4.484 -0.45 -0.00    +0.000 C 
DOCKED: ATOM     22  N   UNL     1      20.499  -9.470  -3.443 -0.37 -0.00    +0.000 N 
DOCKED: ATOM     23  H   UNL     1      20.045  -8.626  -3.670 -0.01 -0.00    +0.000 HD
DOCKED: BRANCH  22  24
DOCKED: ATOM     24  C   UNL     1      20.403  -9.939  -2.087 -0.47 -0.00    +0.000 A 
DOCKED: ATOM     25  C   UNL     1      21.394  -9.581  -1.163 -0.56 -0.00    +0.000 A 
DOCKED: ATOM     26  C   UNL     1      21.340 -10.044   0.154 -0.59 -0.00    +0.000 A 
DOCKED: ATOM     27  C   UNL     1      20.299 -10.896   0.569 -0.61 -0.00    +0.000 A 
DOCKED: ATOM     28  C   UNL     1      19.310 -11.260  -0.362 -0.47 -0.00    +0.000 A 
DOCKED: ATOM     29  C   UNL     1      19.366 -10.795  -1.679 -0.40 -0.00    +0.000 A 
DOCKED: BRANCH  27  30
DOCKED: ATOM     30  C   UNL     1      20.225 -11.401   1.963 -0.77 -0.00    +0.000 C 
DOCKED: ATOM     31  N   UNL     1      20.441 -10.535   3.083 -0.66 -0.00    +0.000 N 
DOCKED: ATOM     32  O   UNL     1      20.266 -10.997   4.343 -0.97 -0.00    +0.000 OA
DOCKED: ATOM     33  O   UNL     1      19.980 -12.621   2.170 -1.66 -0.00    +0.000 OA
DOCKED: ATOM     34  H   UNL     1      20.718  -9.603   2.936 -0.59 -0.00    +0.000 HD
DOCKED: ENDBRANCH  27  30
DOCKED: ENDBRANCH  22  24
DOCKED: ENDBRANCH  19  21
DOCKED: ENDBRANCH   1  19
DOCKED: TORSDOF 9
DOCKED: TER
DOCKED: ENDMDL
________________________________________________________________________________


	BEGINNING GENETIC ALGORITHM DOCKING 64 of 100
Run: 64 Seed: 463824234 1483455490 [ Run 64 of 100 GA/GALS ]
Beginning LAMARCKIAN GENETIC ALGORITHM (LGA), with a maximum of 2500000 energy evaluations.

Final-Value: -14.601


	FINAL GENETIC ALGORITHM DOCKED STATE
	_______________________________________________


Detailed state:  trans 19.483 -11.820 0.486 quatxyzw -0.992578 0.095185 -0.072829 -0.020629 center 1.619 0.086 0.013 ntor 9 -70.2096 -26.6032 172.2728 -54.3256 41.3833 111.3050 58.5275 -102.3758 96.5567
State:	 19.483 -11.820   0.486  -0.993  0.095 -0.073 -177.636    -70.21  -26.60  172.27  -54.33   41.38  111.30   58.53 -102.38   96.56

DOCKED: MODEL       64
DOCKED: USER    Run = 64
DOCKED: USER    DPF = ligand_dock.biased.dpf
DOCKED: USER  
DOCKED: USER    Estimated Free Energy of Binding    =  -10.32 kcal/mol  [=(1)+(2)+(3)-(4)]
DOCKED: USER    Estimated Inhibition Constant, Ki   =   27.44 nM (nanomolar)  [Temperature = 298.15 K]
DOCKED: USER    
DOCKED: USER    (1) Final Intermolecular Energy     =  -13.00 kcal/mol
DOCKED: USER        vdW + Hbond + desolv Energy     =  -13.00 kcal/mol
DOCKED: USER        Electrostatic Energy            =   +0.00 kcal/mol
DOCKED: USER    (2) Final Total Internal Energy     =   -1.60 kcal/mol
DOCKED: USER    (3) Torsional Free Energy           =   +2.68 kcal/mol
DOCKED: USER    (4) Unbound System's Energy  [=(2)] =   -1.60 kcal/mol
DOCKED: USER    
DOCKED: USER    
DOCKED: USER    NEWDPF move ligand.pdbqt
DOCKED: USER    NEWDPF about 1.619000 0.086000 0.013000
DOCKED: USER    NEWDPF tran0 19.482890 -11.819932 0.486493
DOCKED: USER    NEWDPF quaternion0 -0.992578 0.095185 -0.072829 -0.020629
DOCKED: USER    NEWDPF axisangle0 -0.992789 0.095205 -0.072844 -177.635966
DOCKED: USER    NEWDPF quat0 -0.992789 0.095205 -0.072844 -177.635966
DOCKED: USER    NEWDPF dihe0 -70.21 -26.60 172.27 -54.33 41.38 111.30 58.53 -102.38 96.56 
DOCKED: USER  keepresnum = 1 
DOCKED: USER  
DOCKED: REMARK  Name = 
DOCKED: REMARK  11 active torsions:
DOCKED: REMARK  status: ('A' for Active; 'I' for Inactive)
DOCKED: REMARK    1  A    between atoms: C_2  and  O_3
DOCKED: REMARK    2  A    between atoms: O_3  and  C_4
DOCKED: REMARK    3  A    between atoms: C_4  and  C_5
DOCKED: REMARK    4  A    between atoms: C_10  and  C_11
DOCKED: REMARK    5  A    between atoms: C_11  and  N_12
DOCKED: REMARK    6  A    between atoms: N_12  and  C_13
DOCKED: REMARK    7  A    between atoms: N_12  and  C_15
DOCKED: REMARK    8  A    between atoms: C_13  and  C_14
DOCKED: REMARK    9  A    between atoms: C_15  and  C_16
DOCKED: REMARK   10  A    between atoms: N_21  and  C_22
DOCKED: REMARK   11  A    between atoms: C_25  and  C_26
DOCKED: REMARK                            x       y       z     vdW  Elec       q    Type
DOCKED: REMARK                         _______ _______ _______ _____ _____    ______ ____
DOCKED: USER                              x       y       z     vdW  Elec       q    Type
DOCKED: USER                           _______ _______ _______ _____ _____    ______ ____
DOCKED: ROOT
DOCKED: ATOM      1  C   UNL     1      19.543 -11.632   2.874 -0.72 -0.00    +0.000 C 
DOCKED: ENDROOT
DOCKED: BRANCH   1   2
DOCKED: ATOM      2  C   UNL     1      18.109 -11.425   2.477 -0.30 +0.00    +0.000 A 
DOCKED: ATOM      3  C   UNL     1      17.265 -10.614   3.249 -0.39 +0.00    +0.000 A 
DOCKED: ATOM      4  C   UNL     1      15.926 -10.438   2.885 -0.41 +0.00    +0.000 A 
DOCKED: ATOM      5  C   UNL     1      15.411 -11.084   1.752 -0.36 +0.00    +0.000 A 
DOCKED: ATOM      6  C   UNL     1      14.067 -10.921   1.385 -0.32 +0.00    +0.000 A 
DOCKED: ATOM      7  C   UNL     1      13.546 -11.597   0.270 -0.37 +0.00    +0.000 A 
DOCKED: ATOM      8  C   UNL     1      14.394 -12.406  -0.504 -0.41 +0.00    +0.000 A 
DOCKED: ATOM      9  C   UNL     1      15.737 -12.568  -0.150 -0.48 +0.00    +0.000 A 
DOCKED: ATOM     10  C   UNL     1      16.254 -11.916   0.978 -0.41 +0.00    +0.000 A 
DOCKED: ATOM     11  C   UNL     1      17.599 -12.079   1.345 -0.40 +0.00    +0.000 A 
DOCKED: BRANCH   7  12
DOCKED: ATOM     12  C   UNL     1      12.103 -11.408  -0.125 -0.31 +0.00    +0.000 C 
DOCKED: BRANCH  12  13
DOCKED: ATOM     13  N   UNL     1      11.363 -10.662   0.916 -0.27 +0.00    +0.000 N 
DOCKED: ATOM     14  H   UNL     1      12.039 -10.632   1.680 -0.01 +0.00    +0.000 HD
DOCKED: BRANCH  13  15
DOCKED: ATOM     15  C   UNL     1      11.114  -9.242   0.586 -0.13 +0.00    +0.000 C 
DOCKED: ATOM     16  C   UNL     1      11.631  -8.831  -0.794 -0.13 -0.00    +0.000 C 
DOCKED: ENDBRANCH  13  15
DOCKED: BRANCH  13  17
DOCKED: ATOM     17  C   UNL     1      10.229 -11.366   1.568 -0.34 +0.00    +0.000 C 
DOCKED: ATOM     18  C   UNL     1       9.023 -11.630   0.655 -0.35 +0.00    +0.000 C 
DOCKED: ENDBRANCH  13  17
DOCKED: ENDBRANCH  12  13
DOCKED: ENDBRANCH   7  12
DOCKED: ENDBRANCH   1   2
DOCKED: BRANCH   1  19
DOCKED: ATOM     19  O   UNL     1      20.304 -11.977   1.721 -1.76 -0.00    +0.000 OA
DOCKED: BRANCH  19  21
DOCKED: ATOM     20  O   UNL     1      21.387 -10.046   1.074 -0.55 -0.00    +0.000 OA
DOCKED: ATOM     21  C   UNL     1      20.679 -11.041   0.754 -0.71 -0.00    +0.000 C 
DOCKED: ATOM     22  N   UNL     1      20.209 -11.203  -0.591 -0.48 -0.00    +0.000 N 
DOCKED: ATOM     23  H   UNL     1      19.563 -11.925  -0.769 -0.03 -0.00    +0.000 HD
DOCKED: BRANCH  22  24
DOCKED: ATOM     24  C   UNL     1      20.618 -10.382  -1.698 -0.51 -0.00    +0.000 A 
DOCKED: ATOM     25  C   UNL     1      20.902  -9.026  -1.481 -0.48 -0.00    +0.000 A 
DOCKED: ATOM     26  C   UNL     1      21.277  -8.199  -2.542 -0.41 -0.00    +0.000 A 
DOCKED: ATOM     27  C   UNL     1      21.353  -8.708  -3.852 -0.35 -0.00    +0.000 A 
DOCKED: ATOM     28  C   UNL     1      21.060 -10.067  -4.069 -0.41 -0.00    +0.000 A 
DOCKED: ATOM     29  C   UNL     1      20.686 -10.893  -3.005 -0.39 -0.00    +0.000 A 
DOCKED: BRANCH  27  30
DOCKED: ATOM     30  C   UNL     1      21.746  -7.845  -4.994 -0.26 -0.00    +0.000 C 
DOCKED: ATOM     31  N   UNL     1      22.427  -8.379  -6.135 -0.22 -0.00    +0.000 N 
DOCKED: ATOM     32  O   UNL     1      22.682  -7.592  -7.205 -0.13 -0.00    +0.000 OA
DOCKED: ATOM     33  O   UNL     1      21.489  -6.610  -4.957 -0.19 -0.00    +0.000 OA
DOCKED: ATOM     34  H   UNL     1      22.711  -9.321  -6.139 -0.02 -0.00    +0.000 HD
DOCKED: ENDBRANCH  27  30
DOCKED: ENDBRANCH  22  24
DOCKED: ENDBRANCH  19  21
DOCKED: ENDBRANCH   1  19
DOCKED: TORSDOF 9
DOCKED: TER
DOCKED: ENDMDL
________________________________________________________________________________


	BEGINNING GENETIC ALGORITHM DOCKING 65 of 100
Run: 65 Seed: 538574630 22101003 [ Run 65 of 100 GA/GALS ]
Beginning LAMARCKIAN GENETIC ALGORITHM (LGA), with a maximum of 2500000 energy evaluations.

Final-Value: -14.411


	FINAL GENETIC ALGORITHM DOCKED STATE
	_______________________________________________


Detailed state:  trans 21.287 -7.614 -3.389 quatxyzw 0.335584 0.198815 -0.663313 -0.638649 center 1.619 0.086 0.013 ntor 9 161.9448 -175.3505 -51.1159 147.6731 -31.2317 -149.2371 24.7188 -151.1190 -46.9438
State:	 21.287  -7.614  -3.389   0.436  0.258 -0.862 -100.618    161.94 -175.35  -51.12  147.67  -31.23 -149.24   24.72 -151.12  -46.94

DOCKED: MODEL       65
DOCKED: USER    Run = 65
DOCKED: USER    DPF = ligand_dock.biased.dpf
DOCKED: USER  
DOCKED: USER    Estimated Free Energy of Binding    =  -10.12 kcal/mol  [=(1)+(2)+(3)-(4)]
DOCKED: USER    Estimated Inhibition Constant, Ki   =   37.99 nM (nanomolar)  [Temperature = 298.15 K]
DOCKED: USER    
DOCKED: USER    (1) Final Intermolecular Energy     =  -12.81 kcal/mol
DOCKED: USER        vdW + Hbond + desolv Energy     =  -12.81 kcal/mol
DOCKED: USER        Electrostatic Energy            =   +0.00 kcal/mol
DOCKED: USER    (2) Final Total Internal Energy     =   -1.60 kcal/mol
DOCKED: USER    (3) Torsional Free Energy           =   +2.68 kcal/mol
DOCKED: USER    (4) Unbound System's Energy  [=(2)] =   -1.60 kcal/mol
DOCKED: USER    
DOCKED: USER    
DOCKED: USER    NEWDPF move ligand.pdbqt
DOCKED: USER    NEWDPF about 1.619000 0.086000 0.013000
DOCKED: USER    NEWDPF tran0 21.286984 -7.613992 -3.388805
DOCKED: USER    NEWDPF quaternion0 0.335584 0.198815 -0.663313 -0.638649
DOCKED: USER    NEWDPF axisangle0 0.436107 0.258370 -0.862007 -100.617701
DOCKED: USER    NEWDPF quat0 0.436107 0.258370 -0.862007 -100.617701
DOCKED: USER    NEWDPF dihe0 161.94 -175.35 -51.12 147.67 -31.23 -149.24 24.72 -151.12 -46.94 
DOCKED: USER  keepresnum = 1 
DOCKED: USER  
DOCKED: REMARK  Name = 
DOCKED: REMARK  11 active torsions:
DOCKED: REMARK  status: ('A' for Active; 'I' for Inactive)
DOCKED: REMARK    1  A    between atoms: C_2  and  O_3
DOCKED: REMARK    2  A    between atoms: O_3  and  C_4
DOCKED: REMARK    3  A    between atoms: C_4  and  C_5
DOCKED: REMARK    4  A    between atoms: C_10  and  C_11
DOCKED: REMARK    5  A    between atoms: C_11  and  N_12
DOCKED: REMARK    6  A    between atoms: N_12  and  C_13
DOCKED: REMARK    7  A    between atoms: N_12  and  C_15
DOCKED: REMARK    8  A    between atoms: C_13  and  C_14
DOCKED: REMARK    9  A    between atoms: C_15  and  C_16
DOCKED: REMARK   10  A    between atoms: N_21  and  C_22
DOCKED: REMARK   11  A    between atoms: C_25  and  C_26
DOCKED: REMARK                            x       y       z     vdW  Elec       q    Type
DOCKED: REMARK                         _______ _______ _______ _____ _____    ______ ____
DOCKED: USER                              x       y       z     vdW  Elec       q    Type
DOCKED: USER                           _______ _______ _______ _____ _____    ______ ____
DOCKED: ROOT
DOCKED: ATOM      1  C   UNL     1      21.431  -6.211  -5.325 -0.16 -0.00    +0.000 C 
DOCKED: ENDROOT
DOCKED: BRANCH   1   2
DOCKED: ATOM      2  C   UNL     1      21.418  -5.286  -4.142 -0.18 -0.00    +0.000 A 
DOCKED: ATOM      3  C   UNL     1      22.483  -5.277  -3.230 -0.20 -0.00    +0.000 A 
DOCKED: ATOM      4  C   UNL     1      22.459  -4.427  -2.120 -0.32 +0.00    +0.000 A 
DOCKED: ATOM      5  C   UNL     1      21.360  -3.584  -1.901 -0.28 -0.00    +0.000 A 
DOCKED: ATOM      6  C   UNL     1      21.322  -2.734  -0.785 -0.31 -0.00    +0.000 A 
DOCKED: ATOM      7  C   UNL     1      20.204  -1.917  -0.550 -0.21 -0.00    +0.000 A 
DOCKED: ATOM      8  C   UNL     1      19.140  -1.925  -1.466 -0.14 -0.00    +0.000 A 
DOCKED: ATOM      9  C   UNL     1      19.172  -2.762  -2.585 -0.14 -0.00    +0.000 A 
DOCKED: ATOM     10  C   UNL     1      20.275  -3.599  -2.809 -0.18 -0.00    +0.000 A 
DOCKED: ATOM     11  C   UNL     1      20.312  -4.449  -3.925 -0.15 -0.00    +0.000 A 
DOCKED: BRANCH   7  12
DOCKED: ATOM     12  C   UNL     1      20.176  -0.999   0.645 -0.25 -0.00    +0.000 C 
DOCKED: BRANCH  12  13
DOCKED: ATOM     13  N   UNL     1      19.767  -1.729   1.865 -0.40 -0.00    +0.000 N 
DOCKED: ATOM     14  H   UNL     1      19.580  -0.967   2.518 -0.01 -0.00    +0.000 HD
DOCKED: BRANCH  13  15
DOCKED: ATOM     15  C   UNL     1      18.477  -2.440   1.745 -0.37 -0.00    +0.000 C 
DOCKED: ATOM     16  C   UNL     1      17.469  -2.078   2.839 -0.48 -0.00    +0.000 C 
DOCKED: ENDBRANCH  13  15
DOCKED: BRANCH  13  17
DOCKED: ATOM     17  C   UNL     1      20.830  -2.469   2.592 -0.64 -0.00    +0.000 C 
DOCKED: ATOM     18  C   UNL     1      20.703  -2.446   4.121 -0.77 -0.00    +0.000 C 
DOCKED: ENDBRANCH  13  17
DOCKED: ENDBRANCH  12  13
DOCKED: ENDBRANCH   7  12
DOCKED: ENDBRANCH   1   2
DOCKED: BRANCH   1  19
DOCKED: ATOM     19  O   UNL     1      21.474  -7.558  -4.867 -0.25 -0.00    +0.000 OA
DOCKED: BRANCH  19  21
DOCKED: ATOM     20  O   UNL     1      20.053  -7.283  -3.071 -0.20 -0.00    +0.000 OA
DOCKED: ATOM     21  C   UNL     1      20.969  -7.952  -3.624 -0.37 -0.00    +0.000 C 
DOCKED: ATOM     22  N   UNL     1      21.539  -9.094  -2.972 -0.44 -0.00    +0.000 N 
DOCKED: ATOM     23  H   UNL     1      22.329  -9.513  -3.384 -0.04 -0.00    +0.000 HD
DOCKED: BRANCH  22  24
DOCKED: ATOM     24  C   UNL     1      21.032  -9.670  -1.756 -0.54 -0.00    +0.000 A 
DOCKED: ATOM     25  C   UNL     1      19.764 -10.268  -1.754 -0.41 -0.00    +0.000 A 
DOCKED: ATOM     26  C   UNL     1      19.236 -10.812  -0.581 -0.44 -0.00    +0.000 A 
DOCKED: ATOM     27  C   UNL     1      19.959 -10.749   0.624 -0.57 -0.00    +0.000 A 
DOCKED: ATOM     28  C   UNL     1      21.229 -10.142   0.622 -0.45 -0.00    +0.000 A 
DOCKED: ATOM     29  C   UNL     1      21.755  -9.599  -0.554 -0.43 -0.00    +0.000 A 
DOCKED: BRANCH  27  30
DOCKED: ATOM     30  C   UNL     1      19.414 -11.319   1.882 -0.69 -0.00    +0.000 C 
DOCKED: ATOM     31  N   UNL     1      18.350 -10.677   2.594 -0.51 -0.00    +0.000 N 
DOCKED: ATOM     32  O   UNL     1      17.803 -11.270   3.679 -0.50 +0.00    +0.000 OA
DOCKED: ATOM     33  O   UNL     1      19.906 -12.385   2.346 -1.77 -0.00    +0.000 OA
DOCKED: ATOM     34  H   UNL     1      18.017  -9.802   2.292 -0.03 -0.00    +0.000 HD
DOCKED: ENDBRANCH  27  30
DOCKED: ENDBRANCH  22  24
DOCKED: ENDBRANCH  19  21
DOCKED: ENDBRANCH   1  19
DOCKED: TORSDOF 9
DOCKED: TER
DOCKED: ENDMDL
________________________________________________________________________________


	BEGINNING GENETIC ALGORITHM DOCKING 66 of 100
Run: 66 Seed: 1066827835 192412301 [ Run 66 of 100 GA/GALS ]
Beginning LAMARCKIAN GENETIC ALGORITHM (LGA), with a maximum of 2500000 energy evaluations.

Final-Value: -15.511


	FINAL GENETIC ALGORITHM DOCKED STATE
	_______________________________________________


Detailed state:  trans 20.028 -12.210 -0.366 quatxyzw -0.475880 0.665614 -0.394130 0.418518 center 1.619 0.086 0.013 ntor 9 -86.0755 -145.4638 -26.8588 3.3602 179.5781 169.6948 -106.9045 83.8294 69.1063
State:	 20.028 -12.210  -0.366  -0.524  0.733 -0.434 130.518    -86.08 -145.46  -26.86    3.36  179.58  169.69 -106.90   83.83   69.11

DOCKED: MODEL       66
DOCKED: USER    Run = 66
DOCKED: USER    DPF = ligand_dock.biased.dpf
DOCKED: USER  
DOCKED: USER    Estimated Free Energy of Binding    =  -11.18 kcal/mol  [=(1)+(2)+(3)-(4)]
DOCKED: USER    Estimated Inhibition Constant, Ki   =    6.41 nM (nanomolar)  [Temperature = 298.15 K]
DOCKED: USER    
DOCKED: USER    (1) Final Intermolecular Energy     =  -13.86 kcal/mol
DOCKED: USER        vdW + Hbond + desolv Energy     =  -13.86 kcal/mol
DOCKED: USER        Electrostatic Energy            =   +0.00 kcal/mol
DOCKED: USER    (2) Final Total Internal Energy     =   -1.65 kcal/mol
DOCKED: USER    (3) Torsional Free Energy           =   +2.68 kcal/mol
DOCKED: USER    (4) Unbound System's Energy  [=(2)] =   -1.65 kcal/mol
DOCKED: USER    
DOCKED: USER    
DOCKED: USER    NEWDPF move ligand.pdbqt
DOCKED: USER    NEWDPF about 1.619000 0.086000 0.013000
DOCKED: USER    NEWDPF tran0 20.027957 -12.209971 -0.365842
DOCKED: USER    NEWDPF quaternion0 -0.475880 0.665614 -0.394130 0.418518
DOCKED: USER    NEWDPF axisangle0 -0.523977 0.732887 -0.433964 130.517899
DOCKED: USER    NEWDPF quat0 -0.523977 0.732887 -0.433964 130.517899
DOCKED: USER    NEWDPF dihe0 -86.08 -145.46 -26.86 3.36 179.58 169.69 -106.90 83.83 69.11 
DOCKED: USER  keepresnum = 1 
DOCKED: USER  
DOCKED: REMARK  Name = 
DOCKED: REMARK  11 active torsions:
DOCKED: REMARK  status: ('A' for Active; 'I' for Inactive)
DOCKED: REMARK    1  A    between atoms: C_2  and  O_3
DOCKED: REMARK    2  A    between atoms: O_3  and  C_4
DOCKED: REMARK    3  A    between atoms: C_4  and  C_5
DOCKED: REMARK    4  A    between atoms: C_10  and  C_11
DOCKED: REMARK    5  A    between atoms: C_11  and  N_12
DOCKED: REMARK    6  A    between atoms: N_12  and  C_13
DOCKED: REMARK    7  A    between atoms: N_12  and  C_15
DOCKED: REMARK    8  A    between atoms: C_13  and  C_14
DOCKED: REMARK    9  A    between atoms: C_15  and  C_16
DOCKED: REMARK   10  A    between atoms: N_21  and  C_22
DOCKED: REMARK   11  A    between atoms: C_25  and  C_26
DOCKED: REMARK                            x       y       z     vdW  Elec       q    Type
DOCKED: REMARK                         _______ _______ _______ _____ _____    ______ ____
DOCKED: USER                              x       y       z     vdW  Elec       q    Type
DOCKED: USER                           _______ _______ _______ _____ _____    ______ ____
DOCKED: ROOT
DOCKED: ATOM      1  C   UNL     1      20.699 -10.230   0.804 -0.63 -0.00    +0.000 C 
DOCKED: ENDROOT
DOCKED: BRANCH   1   2
DOCKED: ATOM      2  C   UNL     1      20.876  -9.929  -0.656 -0.59 -0.00    +0.000 A 
DOCKED: ATOM      3  C   UNL     1      21.394  -8.694  -1.073 -0.44 -0.00    +0.000 A 
DOCKED: ATOM      4  C   UNL     1      21.541  -8.412  -2.435 -0.36 -0.00    +0.000 A 
DOCKED: ATOM      5  C   UNL     1      21.157  -9.356  -3.397 -0.41 -0.00    +0.000 A 
DOCKED: ATOM      6  C   UNL     1      21.291  -9.077  -4.766 -0.30 -0.00    +0.000 A 
DOCKED: ATOM      7  C   UNL     1      20.873 -10.012  -5.727 -0.29 -0.00    +0.000 A 
DOCKED: ATOM      8  C   UNL     1      20.357 -11.249  -5.308 -0.44 -0.00    +0.000 A 
DOCKED: ATOM      9  C   UNL     1      20.227 -11.538  -3.946 -0.24 -0.00    +0.000 A 
DOCKED: ATOM     10  C   UNL     1      20.619 -10.598  -2.983 -0.45 -0.00    +0.000 A 
DOCKED: ATOM     11  C   UNL     1      20.484 -10.877  -1.615 -0.36 -0.00    +0.000 A 
DOCKED: BRANCH   7  12
DOCKED: ATOM     12  C   UNL     1      21.031  -9.710  -7.196 -0.23 -0.00    +0.000 C 
DOCKED: BRANCH  12  13
DOCKED: ATOM     13  N   UNL     1      21.719 -10.818  -7.894 -0.28 -0.00    +0.000 N 
DOCKED: ATOM     14  H   UNL     1      21.202 -11.634  -7.563 -0.44 -0.00    +0.000 HD
DOCKED: BRANCH  13  15
DOCKED: ATOM     15  C   UNL     1      21.526 -10.827  -9.360 -0.21 -0.00    +0.000 C 
DOCKED: ATOM     16  C   UNL     1      20.398  -9.909  -9.838 -0.14 -0.00    +0.000 C 
DOCKED: ENDBRANCH  13  15
DOCKED: BRANCH  13  17
DOCKED: ATOM     17  C   UNL     1      23.093 -11.149  -7.437 -0.44 -0.00    +0.000 C 
DOCKED: ATOM     18  C   UNL     1      23.699 -12.408  -8.072 -0.47 -0.00    +0.000 C 
DOCKED: ENDBRANCH  13  17
DOCKED: ENDBRANCH  12  13
DOCKED: ENDBRANCH   7  12
DOCKED: ENDBRANCH   1   2
DOCKED: BRANCH   1  19
DOCKED: ATOM     19  O   UNL     1      20.095 -11.511   0.950 -1.13 -0.00    +0.000 OA
DOCKED: BRANCH  19  21
DOCKED: ATOM     20  O   UNL     1      18.301 -12.015   2.309 -0.52 +0.00    +0.000 OA
DOCKED: ATOM     21  C   UNL     1      18.725 -11.683   1.168 -0.60 -0.00    +0.000 C 
DOCKED: ATOM     22  N   UNL     1      17.820 -11.521   0.068 -0.42 -0.00    +0.000 N 
DOCKED: ATOM     23  H   UNL     1      18.204 -11.379  -0.828 -0.01 -0.00    +0.000 HD
DOCKED: BRANCH  22  24
DOCKED: ATOM     24  C   UNL     1      16.387 -11.552   0.185 -0.37 +0.00    +0.000 A 
DOCKED: ATOM     25  C   UNL     1      15.791 -11.230   1.413 -0.36 +0.00    +0.000 A 
DOCKED: ATOM     26  C   UNL     1      14.402 -11.277   1.563 -0.37 +0.00    +0.000 A 
DOCKED: ATOM     27  C   UNL     1      13.581 -11.670   0.489 -0.38 +0.00    +0.000 A 
DOCKED: ATOM     28  C   UNL     1      14.183 -11.998  -0.739 -0.38 +0.00    +0.000 A 
DOCKED: ATOM     29  C   UNL     1      15.572 -11.950  -0.887 -0.34 +0.00    +0.000 A 
DOCKED: BRANCH  27  30
DOCKED: ATOM     30  C   UNL     1      12.104 -11.728   0.629 -0.39 +0.00    +0.000 C 
DOCKED: ATOM     31  N   UNL     1      11.485 -12.397   1.734 -0.43 +0.00    +0.000 N 
DOCKED: ATOM     32  O   UNL     1      10.142 -12.347   1.892 -0.49 +0.00    +0.000 OA
DOCKED: ATOM     33  O   UNL     1      11.375 -11.190  -0.248 -0.34 +0.00    +0.000 OA
DOCKED: ATOM     34  H   UNL     1      12.037 -12.894   2.378 -0.61 +0.00    +0.000 HD
DOCKED: ENDBRANCH  27  30
DOCKED: ENDBRANCH  22  24
DOCKED: ENDBRANCH  19  21
DOCKED: ENDBRANCH   1  19
DOCKED: TORSDOF 9
DOCKED: TER
DOCKED: ENDMDL
________________________________________________________________________________


	BEGINNING GENETIC ALGORITHM DOCKING 67 of 100
Run: 67 Seed: 221647934 1176800497 [ Run 67 of 100 GA/GALS ]
Beginning LAMARCKIAN GENETIC ALGORITHM (LGA), with a maximum of 2500000 energy evaluations.

Final-Value: -14.567


	FINAL GENETIC ALGORITHM DOCKED STATE
	_______________________________________________


Detailed state:  trans 20.004 -8.104 -5.652 quatxyzw 0.239334 0.498344 0.823379 0.128137 center 1.619 0.086 0.013 ntor 9 140.4782 168.8599 79.2585 -156.4085 148.1635 6.8988 -95.4723 71.5001 174.8064
State:	 20.004  -8.104  -5.652   0.241  0.502  0.830 165.276    140.48  168.86   79.26 -156.41  148.16    6.90  -95.47   71.50  174.81

DOCKED: MODEL       67
DOCKED: USER    Run = 67
DOCKED: USER    DPF = ligand_dock.biased.dpf
DOCKED: USER  
DOCKED: USER    Estimated Free Energy of Binding    =  -10.40 kcal/mol  [=(1)+(2)+(3)-(4)]
DOCKED: USER    Estimated Inhibition Constant, Ki   =   23.94 nM (nanomolar)  [Temperature = 298.15 K]
DOCKED: USER    
DOCKED: USER    (1) Final Intermolecular Energy     =  -13.08 kcal/mol
DOCKED: USER        vdW + Hbond + desolv Energy     =  -13.08 kcal/mol
DOCKED: USER        Electrostatic Energy            =   +0.00 kcal/mol
DOCKED: USER    (2) Final Total Internal Energy     =   -1.49 kcal/mol
DOCKED: USER    (3) Torsional Free Energy           =   +2.68 kcal/mol
DOCKED: USER    (4) Unbound System's Energy  [=(2)] =   -1.49 kcal/mol
DOCKED: USER    
DOCKED: USER    
DOCKED: USER    NEWDPF move ligand.pdbqt
DOCKED: USER    NEWDPF about 1.619000 0.086000 0.013000
DOCKED: USER    NEWDPF tran0 20.004165 -8.104293 -5.651683
DOCKED: USER    NEWDPF quaternion0 0.239334 0.498344 0.823379 0.128137
DOCKED: USER    NEWDPF axisangle0 0.241323 0.502486 0.830223 165.276105
DOCKED: USER    NEWDPF quat0 0.241323 0.502486 0.830223 165.276105
DOCKED: USER    NEWDPF dihe0 140.48 168.86 79.26 -156.41 148.16 6.90 -95.47 71.50 174.81 
DOCKED: USER  keepresnum = 1 
DOCKED: USER  
DOCKED: REMARK  Name = 
DOCKED: REMARK  11 active torsions:
DOCKED: REMARK  status: ('A' for Active; 'I' for Inactive)
DOCKED: REMARK    1  A    between atoms: C_2  and  O_3
DOCKED: REMARK    2  A    between atoms: O_3  and  C_4
DOCKED: REMARK    3  A    between atoms: C_4  and  C_5
DOCKED: REMARK    4  A    between atoms: C_10  and  C_11
DOCKED: REMARK    5  A    between atoms: C_11  and  N_12
DOCKED: REMARK    6  A    between atoms: N_12  and  C_13
DOCKED: REMARK    7  A    between atoms: N_12  and  C_15
DOCKED: REMARK    8  A    between atoms: C_13  and  C_14
DOCKED: REMARK    9  A    between atoms: C_15  and  C_16
DOCKED: REMARK   10  A    between atoms: N_21  and  C_22
DOCKED: REMARK   11  A    between atoms: C_25  and  C_26
DOCKED: REMARK                            x       y       z     vdW  Elec       q    Type
DOCKED: REMARK                         _______ _______ _______ _____ _____    ______ ____
DOCKED: USER                              x       y       z     vdW  Elec       q    Type
DOCKED: USER                           _______ _______ _______ _____ _____    ______ ____
DOCKED: ROOT
DOCKED: ATOM      1  C   UNL     1      18.927 -10.010  -6.624 -0.25 -0.00    +0.000 C 
DOCKED: ENDROOT
DOCKED: BRANCH   1   2
DOCKED: ATOM      2  C   UNL     1      20.284  -9.928  -7.264 -0.21 -0.00    +0.000 A 
DOCKED: ATOM      3  C   UNL     1      20.573  -8.922  -8.197 -0.10 -0.00    +0.000 A 
DOCKED: ATOM      4  C   UNL     1      21.832  -8.860  -8.804 -0.08 -0.00    +0.000 A 
DOCKED: ATOM      5  C   UNL     1      22.812  -9.814  -8.495 -0.16 -0.00    +0.000 A 
DOCKED: ATOM      6  C   UNL     1      24.074  -9.765  -9.106 -0.13 -0.00    +0.000 A 
DOCKED: ATOM      7  C   UNL     1      25.041 -10.742  -8.821 -0.28 -0.00    +0.000 A 
DOCKED: ATOM      8  C   UNL     1      24.751 -11.747  -7.884 -0.34 -0.00    +0.000 A 
DOCKED: ATOM      9  C   UNL     1      23.498 -11.799  -7.265 -0.47 -0.00    +0.000 A 
DOCKED: ATOM     10  C   UNL     1      22.521 -10.840  -7.566 -0.32 -0.00    +0.000 A 
DOCKED: ATOM     11  C   UNL     1      21.259 -10.890  -6.956 -0.27 -0.00    +0.000 A 
DOCKED: BRANCH   7  12
DOCKED: ATOM     12  C   UNL     1      26.399 -10.677  -9.473 -0.30 -0.00    +0.000 C 
DOCKED: BRANCH  12  13
DOCKED: ATOM     13  N   UNL     1      27.386 -10.034  -8.578 -0.33 -0.00    +0.000 N 
DOCKED: ATOM     14  H   UNL     1      27.572  -9.154  -9.061 +0.00 -0.00    +0.000 HD
DOCKED: BRANCH  13  15
DOCKED: ATOM     15  C   UNL     1      26.843  -9.629  -7.264 -0.42 -0.00    +0.000 C 
DOCKED: ATOM     16  C   UNL     1      27.494  -8.367  -6.691 -0.41 -0.00    +0.000 C 
DOCKED: ENDBRANCH  13  15
DOCKED: BRANCH  13  17
DOCKED: ATOM     17  C   UNL     1      28.747 -10.630  -8.542 -0.42 -0.00    +0.000 C 
DOCKED: ATOM     18  C   UNL     1      29.892  -9.639  -8.790 -0.29 -0.00    +0.000 C 
DOCKED: ENDBRANCH  13  17
DOCKED: ENDBRANCH  12  13
DOCKED: ENDBRANCH   7  12
DOCKED: ENDBRANCH   1   2
DOCKED: BRANCH   1  19
DOCKED: ATOM     19  O   UNL     1      18.827  -9.019  -5.608 -0.16 -0.00    +0.000 OA
DOCKED: BRANCH  19  21
DOCKED: ATOM     20  O   UNL     1      17.670  -9.449  -3.659 -0.26 -0.00    +0.000 OA
DOCKED: ATOM     21  C   UNL     1      18.781  -9.332  -4.247 -0.26 -0.00    +0.000 C 
DOCKED: ATOM     22  N   UNL     1      20.011  -9.470  -3.522 -0.32 -0.00    +0.000 N 
DOCKED: ATOM     23  H   UNL     1      20.849  -9.253  -3.992 -0.00 -0.00    +0.000 HD
DOCKED: BRANCH  22  24
DOCKED: ATOM     24  C   UNL     1      20.102  -9.905  -2.155 -0.41 -0.00    +0.000 A 
DOCKED: ATOM     25  C   UNL     1      20.992  -9.259  -1.285 -0.54 -0.00    +0.000 A 
DOCKED: ATOM     26  C   UNL     1      21.120  -9.678   0.041 -0.57 -0.00    +0.000 A 
DOCKED: ATOM     27  C   UNL     1      20.375 -10.771   0.520 -0.60 -0.00    +0.000 A 
DOCKED: ATOM     28  C   UNL     1      19.488 -11.423  -0.357 -0.42 -0.00    +0.000 A 
DOCKED: ATOM     29  C   UNL     1      19.361 -11.001  -1.683 -0.36 -0.00    +0.000 A 
DOCKED: BRANCH  27  30
DOCKED: ATOM     30  C   UNL     1      20.499 -11.234   1.925 -0.74 -0.00    +0.000 C 
DOCKED: ATOM     31  N   UNL     1      20.254 -10.352   3.026 -0.60 -0.00    +0.000 N 
DOCKED: ATOM     32  O   UNL     1      20.273 -10.824   4.293 -0.92 -0.00    +0.000 OA
DOCKED: ATOM     33  O   UNL     1      20.841 -12.426   2.159 -1.58 -0.00    +0.000 OA
DOCKED: ATOM     34  H   UNL     1      20.072  -9.399   2.860 -0.55 -0.00    +0.000 HD
DOCKED: ENDBRANCH  27  30
DOCKED: ENDBRANCH  22  24
DOCKED: ENDBRANCH  19  21
DOCKED: ENDBRANCH   1  19
DOCKED: TORSDOF 9
DOCKED: TER
DOCKED: ENDMDL
________________________________________________________________________________


	BEGINNING GENETIC ALGORITHM DOCKING 68 of 100
Run: 68 Seed: 557387376 1417723228 [ Run 68 of 100 GA/GALS ]
Beginning LAMARCKIAN GENETIC ALGORITHM (LGA), with a maximum of 2500000 energy evaluations.

Final-Value: -14.779


	FINAL GENETIC ALGORITHM DOCKED STATE
	_______________________________________________


Detailed state:  trans 21.589 -7.484 -3.810 quatxyzw -0.436657 -0.222839 0.580206 0.650411 center 1.619 0.086 0.013 ntor 9 78.2737 -1.1717 8.1479 -18.7741 88.3303 170.7722 61.9393 -139.1145 -180.0000
State:	 21.589  -7.484  -3.810  -0.575 -0.293  0.764 98.855     78.27   -1.17    8.15  -18.77   88.33  170.77   61.94 -139.11 -180.00

DOCKED: MODEL       68
DOCKED: USER    Run = 68
DOCKED: USER    DPF = ligand_dock.biased.dpf
DOCKED: USER  
DOCKED: USER    Estimated Free Energy of Binding    =  -10.60 kcal/mol  [=(1)+(2)+(3)-(4)]
DOCKED: USER    Estimated Inhibition Constant, Ki   =   17.01 nM (nanomolar)  [Temperature = 298.15 K]
DOCKED: USER    
DOCKED: USER    (1) Final Intermolecular Energy     =  -13.28 kcal/mol
DOCKED: USER        vdW + Hbond + desolv Energy     =  -13.28 kcal/mol
DOCKED: USER        Electrostatic Energy            =   +0.00 kcal/mol
DOCKED: USER    (2) Final Total Internal Energy     =   -1.50 kcal/mol
DOCKED: USER    (3) Torsional Free Energy           =   +2.68 kcal/mol
DOCKED: USER    (4) Unbound System's Energy  [=(2)] =   -1.50 kcal/mol
DOCKED: USER    
DOCKED: USER    
DOCKED: USER    NEWDPF move ligand.pdbqt
DOCKED: USER    NEWDPF about 1.619000 0.086000 0.013000
DOCKED: USER    NEWDPF tran0 21.589480 -7.484150 -3.810465
DOCKED: USER    NEWDPF quaternion0 -0.436657 -0.222839 0.580206 0.650411
DOCKED: USER    NEWDPF axisangle0 -0.574864 -0.293371 0.763848 98.854792
DOCKED: USER    NEWDPF quat0 -0.574864 -0.293371 0.763848 98.854792
DOCKED: USER    NEWDPF dihe0 78.27 -1.17 8.15 -18.77 88.33 170.77 61.94 -139.11 -180.00 
DOCKED: USER  keepresnum = 1 
DOCKED: USER  
DOCKED: REMARK  Name = 
DOCKED: REMARK  11 active torsions:
DOCKED: REMARK  status: ('A' for Active; 'I' for Inactive)
DOCKED: REMARK    1  A    between atoms: C_2  and  O_3
DOCKED: REMARK    2  A    between atoms: O_3  and  C_4
DOCKED: REMARK    3  A    between atoms: C_4  and  C_5
DOCKED: REMARK    4  A    between atoms: C_10  and  C_11
DOCKED: REMARK    5  A    between atoms: C_11  and  N_12
DOCKED: REMARK    6  A    between atoms: N_12  and  C_13
DOCKED: REMARK    7  A    between atoms: N_12  and  C_15
DOCKED: REMARK    8  A    between atoms: C_13  and  C_14
DOCKED: REMARK    9  A    between atoms: C_15  and  C_16
DOCKED: REMARK   10  A    between atoms: N_21  and  C_22
DOCKED: REMARK   11  A    between atoms: C_25  and  C_26
DOCKED: REMARK                            x       y       z     vdW  Elec       q    Type
DOCKED: REMARK                         _______ _______ _______ _____ _____    ______ ____
DOCKED: USER                              x       y       z     vdW  Elec       q    Type
DOCKED: USER                           _______ _______ _______ _____ _____    ______ ____
DOCKED: ROOT
DOCKED: ATOM      1  C   UNL     1      21.870  -5.728  -5.415 -0.14 -0.00    +0.000 C 
DOCKED: ENDROOT
DOCKED: BRANCH   1   2
DOCKED: ATOM      2  C   UNL     1      21.572  -5.052  -4.107 -0.17 -0.00    +0.000 A 
DOCKED: ATOM      3  C   UNL     1      20.313  -5.187  -3.504 -0.21 -0.00    +0.000 A 
DOCKED: ATOM      4  C   UNL     1      20.035  -4.541  -2.295 -0.16 -0.00    +0.000 A 
DOCKED: ATOM      5  C   UNL     1      21.008  -3.740  -1.682 -0.32 -0.00    +0.000 A 
DOCKED: ATOM      6  C   UNL     1      20.735  -3.080  -0.474 -0.38 -0.00    +0.000 A 
DOCKED: ATOM      7  C   UNL     1      21.700  -2.251   0.119 -0.35 -0.00    +0.000 A 
DOCKED: ATOM      8  C   UNL     1      22.961  -2.119  -0.485 -0.26 -0.00    +0.000 A 
DOCKED: ATOM      9  C   UNL     1      23.245  -2.779  -1.684 -0.24 -0.00    +0.000 A 
DOCKED: ATOM     10  C   UNL     1      22.275  -3.587  -2.293 -0.23 -0.00    +0.000 A 
DOCKED: ATOM     11  C   UNL     1      22.549  -4.246  -3.502 -0.18 -0.00    +0.000 A 
DOCKED: BRANCH   7  12
DOCKED: ATOM     12  C   UNL     1      21.403  -1.555   1.423 -0.45 -0.00    +0.000 C 
DOCKED: BRANCH  12  13
DOCKED: ATOM     13  N   UNL     1      20.604  -2.422   2.316 -0.60 -0.00    +0.000 N 
DOCKED: ATOM     14  H   UNL     1      20.866  -3.356   1.998 -0.06 +0.00    +0.000 HD
DOCKED: BRANCH  13  15
DOCKED: ATOM     15  C   UNL     1      21.021  -2.383   3.734 -0.74 -0.00    +0.000 C 
DOCKED: ATOM     16  C   UNL     1      19.880  -2.645   4.719 -0.37 -0.00    +0.000 C 
DOCKED: ENDBRANCH  13  15
DOCKED: BRANCH  13  17
DOCKED: ATOM     17  C   UNL     1      19.136  -2.448   2.091 -0.43 -0.00    +0.000 C 
DOCKED: ATOM     18  C   UNL     1      18.501  -1.076   1.826 -0.35 -0.00    +0.000 C 
DOCKED: ENDBRANCH  13  17
DOCKED: ENDBRANCH  12  13
DOCKED: ENDBRANCH   7  12
DOCKED: ENDBRANCH   1   2
DOCKED: BRANCH   1  19
DOCKED: ATOM     19  O   UNL     1      21.994  -7.130  -5.201 -0.22 -0.00    +0.000 OA
DOCKED: BRANCH  19  21
DOCKED: ATOM     20  O   UNL     1      19.929  -7.902  -4.521 -0.22 -0.00    +0.000 OA
DOCKED: ATOM     21  C   UNL     1      21.173  -7.836  -4.317 -0.31 -0.00    +0.000 C 
DOCKED: ATOM     22  N   UNL     1      21.758  -8.441  -3.156 -0.39 -0.00    +0.000 N 
DOCKED: ATOM     23  H   UNL     1      22.710  -8.263  -2.975 +0.02 -0.00    +0.000 HD
DOCKED: BRANCH  22  24
DOCKED: ATOM     24  C   UNL     1      21.048  -9.290  -2.239 -0.49 -0.00    +0.000 A 
DOCKED: ATOM     25  C   UNL     1      19.927 -10.002  -2.688 -0.39 -0.00    +0.000 A 
DOCKED: ATOM     26  C   UNL     1      19.202 -10.815  -1.812 -0.39 -0.00    +0.000 A 
DOCKED: ATOM     27  C   UNL     1      19.573 -10.913  -0.458 -0.48 -0.00    +0.000 A 
DOCKED: ATOM     28  C   UNL     1      20.695 -10.193  -0.009 -0.60 -0.00    +0.000 A 
DOCKED: ATOM     29  C   UNL     1      21.418  -9.381  -0.887 -0.54 -0.00    +0.000 A 
DOCKED: BRANCH  27  30
DOCKED: ATOM     30  C   UNL     1      18.815 -11.769   0.489 -0.58 -0.00    +0.000 C 
DOCKED: ATOM     31  N   UNL     1      17.522 -12.286   0.157 -0.48 +0.00    +0.000 N 
DOCKED: ATOM     32  O   UNL     1      16.898 -13.146   0.994 -1.13 +0.00    +0.000 OA
DOCKED: ATOM     33  O   UNL     1      19.311 -12.038   1.617 -1.42 -0.00    +0.000 OA
DOCKED: ATOM     34  H   UNL     1      17.086 -12.014  -0.682 -0.01 +0.00    +0.000 HD
DOCKED: ENDBRANCH  27  30
DOCKED: ENDBRANCH  22  24
DOCKED: ENDBRANCH  19  21
DOCKED: ENDBRANCH   1  19
DOCKED: TORSDOF 9
DOCKED: TER
DOCKED: ENDMDL
________________________________________________________________________________


	BEGINNING GENETIC ALGORITHM DOCKING 69 of 100
Run: 69 Seed: 1495341787 1844619822 [ Run 69 of 100 GA/GALS ]
Beginning LAMARCKIAN GENETIC ALGORITHM (LGA), with a maximum of 2500000 energy evaluations.

Final-Value: -16.258


	FINAL GENETIC ALGORITHM DOCKED STATE
	_______________________________________________


Detailed state:  trans 21.003 -10.489 -4.878 quatxyzw 0.248179 0.172021 0.105056 -0.947512 center 1.619 0.086 0.013 ntor 9 151.5747 -179.9735 -124.8793 177.4344 162.5672 61.1108 92.9135 -170.7561 140.8097
State:	 21.003 -10.489  -4.878   0.776  0.538  0.329 -37.292    151.57 -179.97 -124.88  177.43  162.57   61.11   92.91 -170.76  140.81

DOCKED: MODEL       69
DOCKED: USER    Run = 69
DOCKED: USER    DPF = ligand_dock.biased.dpf
DOCKED: USER  
DOCKED: USER    Estimated Free Energy of Binding    =  -11.18 kcal/mol  [=(1)+(2)+(3)-(4)]
DOCKED: USER    Estimated Inhibition Constant, Ki   =    6.42 nM (nanomolar)  [Temperature = 298.15 K]
DOCKED: USER    
DOCKED: USER    (1) Final Intermolecular Energy     =  -13.86 kcal/mol
DOCKED: USER        vdW + Hbond + desolv Energy     =  -13.86 kcal/mol
DOCKED: USER        Electrostatic Energy            =   +0.00 kcal/mol
DOCKED: USER    (2) Final Total Internal Energy     =   -2.40 kcal/mol
DOCKED: USER    (3) Torsional Free Energy           =   +2.68 kcal/mol
DOCKED: USER    (4) Unbound System's Energy  [=(2)] =   -2.40 kcal/mol
DOCKED: USER    
DOCKED: USER    
DOCKED: USER    NEWDPF move ligand.pdbqt
DOCKED: USER    NEWDPF about 1.619000 0.086000 0.013000
DOCKED: USER    NEWDPF tran0 21.003463 -10.488924 -4.878136
DOCKED: USER    NEWDPF quaternion0 0.248179 0.172021 0.105056 -0.947512
DOCKED: USER    NEWDPF axisangle0 0.776239 0.538036 0.328588 -37.292025
DOCKED: USER    NEWDPF quat0 0.776239 0.538036 0.328588 -37.292025
DOCKED: USER    NEWDPF dihe0 151.57 -179.97 -124.88 177.43 162.57 61.11 92.91 -170.76 140.81 
DOCKED: USER  keepresnum = 1 
DOCKED: USER  
DOCKED: REMARK  Name = 
DOCKED: REMARK  11 active torsions:
DOCKED: REMARK  status: ('A' for Active; 'I' for Inactive)
DOCKED: REMARK    1  A    between atoms: C_2  and  O_3
DOCKED: REMARK    2  A    between atoms: O_3  and  C_4
DOCKED: REMARK    3  A    between atoms: C_4  and  C_5
DOCKED: REMARK    4  A    between atoms: C_10  and  C_11
DOCKED: REMARK    5  A    between atoms: C_11  and  N_12
DOCKED: REMARK    6  A    between atoms: N_12  and  C_13
DOCKED: REMARK    7  A    between atoms: N_12  and  C_15
DOCKED: REMARK    8  A    between atoms: C_13  and  C_14
DOCKED: REMARK    9  A    between atoms: C_15  and  C_16
DOCKED: REMARK   10  A    between atoms: N_21  and  C_22
DOCKED: REMARK   11  A    between atoms: C_25  and  C_26
DOCKED: REMARK                            x       y       z     vdW  Elec       q    Type
DOCKED: REMARK                         _______ _______ _______ _____ _____    ______ ____
DOCKED: USER                              x       y       z     vdW  Elec       q    Type
DOCKED: USER                           _______ _______ _______ _____ _____    ______ ____
DOCKED: ROOT
DOCKED: ATOM      1  C   UNL     1      20.482  -9.647  -7.059 -0.22 -0.00    +0.000 C 
DOCKED: ENDROOT
DOCKED: BRANCH   1   2
DOCKED: ATOM      2  C   UNL     1      19.176 -10.078  -6.458 -0.23 -0.00    +0.000 A 
DOCKED: ATOM      3  C   UNL     1      18.539 -11.249  -6.896 -0.32 -0.00    +0.000 A 
DOCKED: ATOM      4  C   UNL     1      17.313 -11.637  -6.345 -0.28 -0.00    +0.000 A 
DOCKED: ATOM      5  C   UNL     1      16.702 -10.850  -5.359 -0.23 -0.00    +0.000 A 
DOCKED: ATOM      6  C   UNL     1      15.468 -11.226  -4.807 -0.17 -0.00    +0.000 A 
DOCKED: ATOM      7  C   UNL     1      14.842 -10.417  -3.845 -0.23 -0.00    +0.000 A 
DOCKED: ATOM      8  C   UNL     1      15.482  -9.247  -3.405 -0.19 -0.00    +0.000 A 
DOCKED: ATOM      9  C   UNL     1      16.716  -8.869  -3.943 -0.15 -0.00    +0.000 A 
DOCKED: ATOM     10  C   UNL     1      17.332  -9.660  -4.923 -0.19 -0.00    +0.000 A 
DOCKED: ATOM     11  C   UNL     1      18.566  -9.283  -5.475 -0.17 -0.00    +0.000 A 
DOCKED: BRANCH   7  12
DOCKED: ATOM     12  C   UNL     1      13.521 -10.834  -3.249 -0.22 -0.00    +0.000 C 
DOCKED: BRANCH  12  13
DOCKED: ATOM     13  N   UNL     1      13.673 -11.191  -1.821 -0.33 -0.00    +0.000 N 
DOCKED: ATOM     14  H   UNL     1      13.101 -12.033  -1.749 -0.03 +0.00    +0.000 HD
DOCKED: BRANCH  13  15
DOCKED: ATOM     15  C   UNL     1      15.033 -11.634  -1.446 -0.36 +0.00    +0.000 C 
DOCKED: ATOM     16  C   UNL     1      15.051 -12.865  -0.538 -0.54 +0.00    +0.000 C 
DOCKED: ENDBRANCH  13  15
DOCKED: BRANCH  13  17
DOCKED: ATOM     17  C   UNL     1      13.002 -10.307  -0.834 -0.27 +0.00    +0.000 C 
DOCKED: ATOM     18  C   UNL     1      12.309 -11.041   0.323 -0.36 +0.00    +0.000 C 
DOCKED: ENDBRANCH  13  17
DOCKED: ENDBRANCH  12  13
DOCKED: ENDBRANCH   7  12
DOCKED: ENDBRANCH   1   2
DOCKED: BRANCH   1  19
DOCKED: ATOM     19  O   UNL     1      21.514  -9.782  -6.088 -0.29 -0.00    +0.000 OA
DOCKED: BRANCH  19  21
DOCKED: ATOM     20  O   UNL     1      21.556 -11.611  -4.682 -0.61 -0.00    +0.000 OA
DOCKED: ATOM     21  C   UNL     1      21.307 -10.384  -4.843 -0.46 -0.00    +0.000 C 
DOCKED: ATOM     22  N   UNL     1      20.766  -9.600  -3.771 -0.37 -0.00    +0.000 N 
DOCKED: ATOM     23  H   UNL     1      20.476  -8.681  -3.975 -0.00 -0.00    +0.000 HD
DOCKED: BRANCH  22  24
DOCKED: ATOM     24  C   UNL     1      20.620 -10.065  -2.419 -0.48 -0.00    +0.000 A 
DOCKED: ATOM     25  C   UNL     1      19.486 -10.812  -2.067 -0.39 -0.00    +0.000 A 
DOCKED: ATOM     26  C   UNL     1      19.306 -11.255  -0.755 -0.42 -0.00    +0.000 A 
DOCKED: ATOM     27  C   UNL     1      20.248 -10.939   0.241 -0.58 -0.00    +0.000 A 
DOCKED: ATOM     28  C   UNL     1      21.381 -10.184  -0.112 -0.63 -0.00    +0.000 A 
DOCKED: ATOM     29  C   UNL     1      21.560  -9.742  -1.427 -0.41 -0.00    +0.000 A 
DOCKED: BRANCH  27  30
DOCKED: ATOM     30  C   UNL     1      20.073 -11.398   1.642 -0.75 -0.00    +0.000 C 
DOCKED: ATOM     31  N   UNL     1      20.530 -10.612   2.749 -0.64 -0.00    +0.000 N 
DOCKED: ATOM     32  O   UNL     1      20.266 -11.004   4.016 -1.14 -0.00    +0.000 OA
DOCKED: ATOM     33  O   UNL     1      19.522 -12.511   1.867 -1.58 -0.00    +0.000 OA
DOCKED: ATOM     34  H   UNL     1      21.038  -9.785   2.586 -0.59 -0.00    +0.000 HD
DOCKED: ENDBRANCH  27  30
DOCKED: ENDBRANCH  22  24
DOCKED: ENDBRANCH  19  21
DOCKED: ENDBRANCH   1  19
DOCKED: TORSDOF 9
DOCKED: TER
DOCKED: ENDMDL
________________________________________________________________________________


	BEGINNING GENETIC ALGORITHM DOCKING 70 of 100
Run: 70 Seed: 1988416748 2133720606 [ Run 70 of 100 GA/GALS ]
Beginning LAMARCKIAN GENETIC ALGORITHM (LGA), with a maximum of 2500000 energy evaluations.

Final-Value: -15.839


	FINAL GENETIC ALGORITHM DOCKED STATE
	_______________________________________________


Detailed state:  trans 21.184 -10.108 -4.608 quatxyzw -0.226427 -0.177238 -0.107377 0.951729 center 1.619 0.086 0.013 ntor 9 92.7773 144.6964 92.0504 -2.8273 147.2134 -157.9337 103.1528 -165.7092 157.6938
State:	 21.184 -10.108  -4.608  -0.738 -0.577 -0.350 35.750     92.78  144.70   92.05   -2.83  147.21 -157.93  103.15 -165.71  157.69

DOCKED: MODEL       70
DOCKED: USER    Run = 70
DOCKED: USER    DPF = ligand_dock.biased.dpf
DOCKED: USER  
DOCKED: USER    Estimated Free Energy of Binding    =  -10.50 kcal/mol  [=(1)+(2)+(3)-(4)]
DOCKED: USER    Estimated Inhibition Constant, Ki   =   20.05 nM (nanomolar)  [Temperature = 298.15 K]
DOCKED: USER    
DOCKED: USER    (1) Final Intermolecular Energy     =  -13.19 kcal/mol
DOCKED: USER        vdW + Hbond + desolv Energy     =  -13.19 kcal/mol
DOCKED: USER        Electrostatic Energy            =   +0.00 kcal/mol
DOCKED: USER    (2) Final Total Internal Energy     =   -2.65 kcal/mol
DOCKED: USER    (3) Torsional Free Energy           =   +2.68 kcal/mol
DOCKED: USER    (4) Unbound System's Energy  [=(2)] =   -2.65 kcal/mol
DOCKED: USER    
DOCKED: USER    
DOCKED: USER    NEWDPF move ligand.pdbqt
DOCKED: USER    NEWDPF about 1.619000 0.086000 0.013000
DOCKED: USER    NEWDPF tran0 21.184198 -10.107611 -4.607690
DOCKED: USER    NEWDPF quaternion0 -0.226427 -0.177238 -0.107377 0.951729
DOCKED: USER    NEWDPF axisangle0 -0.737690 -0.577435 -0.349832 35.749898
DOCKED: USER    NEWDPF quat0 -0.737690 -0.577435 -0.349832 35.749898
DOCKED: USER    NEWDPF dihe0 92.78 144.70 92.05 -2.83 147.21 -157.93 103.15 -165.71 157.69 
DOCKED: USER  keepresnum = 1 
DOCKED: USER  
DOCKED: REMARK  Name = 
DOCKED: REMARK  11 active torsions:
DOCKED: REMARK  status: ('A' for Active; 'I' for Inactive)
DOCKED: REMARK    1  A    between atoms: C_2  and  O_3
DOCKED: REMARK    2  A    between atoms: O_3  and  C_4
DOCKED: REMARK    3  A    between atoms: C_4  and  C_5
DOCKED: REMARK    4  A    between atoms: C_10  and  C_11
DOCKED: REMARK    5  A    between atoms: C_11  and  N_12
DOCKED: REMARK    6  A    between atoms: N_12  and  C_13
DOCKED: REMARK    7  A    between atoms: N_12  and  C_15
DOCKED: REMARK    8  A    between atoms: C_13  and  C_14
DOCKED: REMARK    9  A    between atoms: C_15  and  C_16
DOCKED: REMARK   10  A    between atoms: N_21  and  C_22
DOCKED: REMARK   11  A    between atoms: C_25  and  C_26
DOCKED: REMARK                            x       y       z     vdW  Elec       q    Type
DOCKED: REMARK                         _______ _______ _______ _____ _____    ______ ____
DOCKED: USER                              x       y       z     vdW  Elec       q    Type
DOCKED: USER                           _______ _______ _______ _____ _____    ______ ____
DOCKED: ROOT
DOCKED: ATOM      1  C   UNL     1      20.646  -9.369  -6.822 -0.20 -0.00    +0.000 C 
DOCKED: ENDROOT
DOCKED: BRANCH   1   2
DOCKED: ATOM      2  C   UNL     1      19.347  -9.791  -6.198 -0.20 -0.00    +0.000 A 
DOCKED: ATOM      3  C   UNL     1      18.901 -11.117  -6.303 -0.34 -0.00    +0.000 A 
DOCKED: ATOM      4  C   UNL     1      17.682 -11.501  -5.736 -0.19 -0.00    +0.000 A 
DOCKED: ATOM      5  C   UNL     1      16.886 -10.559  -5.068 -0.22 -0.00    +0.000 A 
DOCKED: ATOM      6  C   UNL     1      15.657 -10.933  -4.504 -0.16 -0.00    +0.000 A 
DOCKED: ATOM      7  C   UNL     1      14.847  -9.980  -3.867 -0.20 -0.00    +0.000 A 
DOCKED: ATOM      8  C   UNL     1      15.296  -8.654  -3.760 -0.16 -0.00    +0.000 A 
DOCKED: ATOM      9  C   UNL     1      16.523  -8.274  -4.312 -0.13 -0.00    +0.000 A 
DOCKED: ATOM     10  C   UNL     1      17.323  -9.217  -4.972 -0.17 -0.00    +0.000 A 
DOCKED: ATOM     11  C   UNL     1      18.552  -8.842  -5.536 -0.15 -0.00    +0.000 A 
DOCKED: BRANCH   7  12
DOCKED: ATOM     12  C   UNL     1      13.533 -10.392  -3.254 -0.25 -0.00    +0.000 C 
DOCKED: BRANCH  12  13
DOCKED: ATOM     13  N   UNL     1      13.682 -10.652  -1.805 -0.28 -0.00    +0.000 N 
DOCKED: ATOM     14  H   UNL     1      14.280  -9.879  -1.509 +0.00 -0.00    +0.000 HD
DOCKED: BRANCH  13  15
DOCKED: ATOM     15  C   UNL     1      12.439 -10.479  -1.024 -0.27 +0.00    +0.000 C 
DOCKED: ATOM     16  C   UNL     1      12.503 -11.088   0.378 -0.37 +0.00    +0.000 C 
DOCKED: ENDBRANCH  13  15
DOCKED: BRANCH  13  17
DOCKED: ATOM     17  C   UNL     1      14.515 -11.819  -1.415 -0.40 +0.00    +0.000 C 
DOCKED: ATOM     18  C   UNL     1      15.922 -11.468  -0.911 -0.35 +0.00    +0.000 C 
DOCKED: ENDBRANCH  13  17
DOCKED: ENDBRANCH  12  13
DOCKED: ENDBRANCH   7  12
DOCKED: ENDBRANCH   1   2
DOCKED: BRANCH   1  19
DOCKED: ATOM     19  O   UNL     1      21.682  -9.447  -5.848 -0.30 -0.00    +0.000 OA
DOCKED: BRANCH  19  21
DOCKED: ATOM     20  O   UNL     1      22.026 -11.226  -4.420 -0.58 -0.00    +0.000 OA
DOCKED: ATOM     21  C   UNL     1      21.516 -10.088  -4.617 -0.44 -0.00    +0.000 C 
DOCKED: ATOM     22  N   UNL     1      20.723  -9.456  -3.604 -0.38 -0.00    +0.000 N 
DOCKED: ATOM     23  H   UNL     1      20.247  -8.627  -3.842 -0.00 -0.00    +0.000 HD
DOCKED: BRANCH  22  24
DOCKED: ATOM     24  C   UNL     1      20.575  -9.951  -2.263 -0.48 -0.00    +0.000 A 
DOCKED: ATOM     25  C   UNL     1      21.717 -10.149  -1.473 -0.36 -0.00    +0.000 A 
DOCKED: ATOM     26  C   UNL     1      21.606 -10.653  -0.175 -0.53 -0.00    +0.000 A 
DOCKED: ATOM     27  C   UNL     1      20.346 -10.993   0.353 -0.59 -0.00    +0.000 A 
DOCKED: ATOM     28  C   UNL     1      19.203 -10.800  -0.443 -0.44 -0.00    +0.000 A 
DOCKED: ATOM     29  C   UNL     1      19.317 -10.294  -1.741 -0.31 -0.00    +0.000 A 
DOCKED: BRANCH  27  30
DOCKED: ATOM     30  C   UNL     1      20.207 -11.533   1.729 -0.77 -0.00    +0.000 C 
DOCKED: ATOM     31  N   UNL     1      20.440 -10.714   2.880 -0.67 -0.00    +0.000 N 
DOCKED: ATOM     32  O   UNL     1      20.206 -11.202   4.120 -1.11 -0.00    +0.000 OA
DOCKED: ATOM     33  O   UNL     1      19.890 -12.743   1.892 -1.61 -0.00    +0.000 OA
DOCKED: ATOM     34  H   UNL     1      20.771  -9.794   2.769 -0.58 -0.00    +0.000 HD
DOCKED: ENDBRANCH  27  30
DOCKED: ENDBRANCH  22  24
DOCKED: ENDBRANCH  19  21
DOCKED: ENDBRANCH   1  19
DOCKED: TORSDOF 9
DOCKED: TER
DOCKED: ENDMDL
________________________________________________________________________________


	BEGINNING GENETIC ALGORITHM DOCKING 71 of 100
Run: 71 Seed: 1570832323 102102250 [ Run 71 of 100 GA/GALS ]
Beginning LAMARCKIAN GENETIC ALGORITHM (LGA), with a maximum of 2500000 energy evaluations.

Final-Value: -13.863


	FINAL GENETIC ALGORITHM DOCKED STATE
	_______________________________________________


Detailed state:  trans 22.160 -11.485 -6.000 quatxyzw -0.226461 0.431771 -0.864487 -0.122276 center 1.619 0.086 0.013 ntor 9 165.3751 -58.6900 -123.3700 108.8818 120.5249 113.5334 118.3315 -59.8326 86.2619
State:	 22.160 -11.485  -6.000  -0.228  0.435 -0.871 -165.953    165.38  -58.69 -123.37  108.88  120.52  113.53  118.33  -59.83   86.26

DOCKED: MODEL       71
DOCKED: USER    Run = 71
DOCKED: USER    DPF = ligand_dock.biased.dpf
DOCKED: USER  
DOCKED: USER    Estimated Free Energy of Binding    =   -9.59 kcal/mol  [=(1)+(2)+(3)-(4)]
DOCKED: USER    Estimated Inhibition Constant, Ki   =   93.40 nM (nanomolar)  [Temperature = 298.15 K]
DOCKED: USER    
DOCKED: USER    (1) Final Intermolecular Energy     =  -12.27 kcal/mol
DOCKED: USER        vdW + Hbond + desolv Energy     =  -12.27 kcal/mol
DOCKED: USER        Electrostatic Energy            =   +0.00 kcal/mol
DOCKED: USER    (2) Final Total Internal Energy     =   -1.59 kcal/mol
DOCKED: USER    (3) Torsional Free Energy           =   +2.68 kcal/mol
DOCKED: USER    (4) Unbound System's Energy  [=(2)] =   -1.59 kcal/mol
DOCKED: USER    
DOCKED: USER    
DOCKED: USER    NEWDPF move ligand.pdbqt
DOCKED: USER    NEWDPF about 1.619000 0.086000 0.013000
DOCKED: USER    NEWDPF tran0 22.159665 -11.485371 -5.999821
DOCKED: USER    NEWDPF quaternion0 -0.226461 0.431771 -0.864487 -0.122276
DOCKED: USER    NEWDPF axisangle0 -0.228173 0.435036 -0.871023 -165.952999
DOCKED: USER    NEWDPF quat0 -0.228173 0.435036 -0.871023 -165.952999
DOCKED: USER    NEWDPF dihe0 165.38 -58.69 -123.37 108.88 120.52 113.53 118.33 -59.83 86.26 
DOCKED: USER  keepresnum = 1 
DOCKED: USER  
DOCKED: REMARK  Name = 
DOCKED: REMARK  11 active torsions:
DOCKED: REMARK  status: ('A' for Active; 'I' for Inactive)
DOCKED: REMARK    1  A    between atoms: C_2  and  O_3
DOCKED: REMARK    2  A    between atoms: O_3  and  C_4
DOCKED: REMARK    3  A    between atoms: C_4  and  C_5
DOCKED: REMARK    4  A    between atoms: C_10  and  C_11
DOCKED: REMARK    5  A    between atoms: C_11  and  N_12
DOCKED: REMARK    6  A    between atoms: N_12  and  C_13
DOCKED: REMARK    7  A    between atoms: N_12  and  C_15
DOCKED: REMARK    8  A    between atoms: C_13  and  C_14
DOCKED: REMARK    9  A    between atoms: C_15  and  C_16
DOCKED: REMARK   10  A    between atoms: N_21  and  C_22
DOCKED: REMARK   11  A    between atoms: C_25  and  C_26
DOCKED: REMARK                            x       y       z     vdW  Elec       q    Type
DOCKED: REMARK                         _______ _______ _______ _____ _____    ______ ____
DOCKED: USER                              x       y       z     vdW  Elec       q    Type
DOCKED: USER                           _______ _______ _______ _____ _____    ______ ____
DOCKED: ROOT
DOCKED: ATOM      1  C   UNL     1      20.678  -9.815  -6.867 -0.25 -0.00    +0.000 C 
DOCKED: ENDROOT
DOCKED: BRANCH   1   2
DOCKED: ATOM      2  C   UNL     1      22.062  -9.388  -7.263 -0.20 -0.00    +0.000 A 
DOCKED: ATOM      3  C   UNL     1      22.322  -8.059  -7.629 -0.10 -0.00    +0.000 A 
DOCKED: ATOM      4  C   UNL     1      23.609  -7.670  -8.014 -0.10 -0.00    +0.000 A 
DOCKED: ATOM      5  C   UNL     1      24.649  -8.610  -8.053 -0.17 -0.00    +0.000 A 
DOCKED: ATOM      6  C   UNL     1      25.941  -8.231  -8.448 -0.13 -0.00    +0.000 A 
DOCKED: ATOM      7  C   UNL     1      26.971  -9.182  -8.520 -0.22 -0.00    +0.000 A 
DOCKED: ATOM      8  C   UNL     1      26.709 -10.512  -8.151 -0.37 -0.00    +0.000 A 
DOCKED: ATOM      9  C   UNL     1      25.427 -10.897  -7.748 -0.26 -0.00    +0.000 A 
DOCKED: ATOM     10  C   UNL     1      24.389  -9.955  -7.701 -0.28 -0.00    +0.000 A 
DOCKED: ATOM     11  C   UNL     1      23.097 -10.335  -7.306 -0.30 -0.00    +0.000 A 
DOCKED: BRANCH   7  12
DOCKED: ATOM     12  C   UNL     1      28.359  -8.765  -8.934 -0.18 -0.00    +0.000 C 
DOCKED: BRANCH  12  13
DOCKED: ATOM     13  N   UNL     1      28.995  -7.930  -7.891 -0.16 -0.00    +0.000 N 
DOCKED: ATOM     14  H   UNL     1      29.988  -8.097  -8.060 +0.00 -0.00    +0.000 HD
DOCKED: BRANCH  13  15
DOCKED: ATOM     15  C   UNL     1      28.824  -6.475  -8.088 -0.07 -0.00    +0.000 C 
DOCKED: ATOM     16  C   UNL     1      30.145  -5.706  -8.178 -0.03 -0.00    +0.000 C 
DOCKED: ENDBRANCH  13  15
DOCKED: BRANCH  13  17
DOCKED: ATOM     17  C   UNL     1      28.864  -8.396  -6.487 -0.38 -0.00    +0.000 C 
DOCKED: ATOM     18  C   UNL     1      27.778  -7.683  -5.669 -0.38 -0.00    +0.000 C 
DOCKED: ENDBRANCH  13  17
DOCKED: ENDBRANCH  12  13
DOCKED: ENDBRANCH   7  12
DOCKED: ENDBRANCH   1   2
DOCKED: BRANCH   1  19
DOCKED: ATOM     19  O   UNL     1      20.742 -11.091  -6.239 -0.40 -0.00    +0.000 OA
DOCKED: BRANCH  19  21
DOCKED: ATOM     20  O   UNL     1      19.411 -12.106  -4.652 -0.55 -0.00    +0.000 OA
DOCKED: ATOM     21  C   UNL     1      20.349 -11.304  -4.915 -0.52 -0.00    +0.000 C 
DOCKED: ATOM     22  N   UNL     1      20.995 -10.564  -3.870 -0.46 -0.00    +0.000 N 
DOCKED: ATOM     23  H   UNL     1      21.637  -9.864  -4.130 -0.02 -0.00    +0.000 HD
DOCKED: BRANCH  22  24
DOCKED: ATOM     24  C   UNL     1      20.768 -10.777  -2.466 -0.38 -0.00    +0.000 A 
DOCKED: ATOM     25  C   UNL     1      19.506 -11.206  -2.030 -0.25 -0.00    +0.000 A 
DOCKED: ATOM     26  C   UNL     1      19.250 -11.396  -0.670 -0.39 -0.00    +0.000 A 
DOCKED: ATOM     27  C   UNL     1      20.249 -11.138   0.287 -0.58 -0.00    +0.000 A 
DOCKED: ATOM     28  C   UNL     1      21.512 -10.701  -0.152 -0.55 -0.00    +0.000 A 
DOCKED: ATOM     29  C   UNL     1      21.765 -10.512  -1.514 -0.39 -0.00    +0.000 A 
DOCKED: BRANCH  27  30
DOCKED: ATOM     30  C   UNL     1      19.996 -11.331   1.737 -0.74 -0.00    +0.000 C 
DOCKED: ATOM     31  N   UNL     1      20.596 -10.479   2.720 -0.58 -0.00    +0.000 N 
DOCKED: ATOM     32  O   UNL     1      20.268 -10.612   4.026 -0.96 -0.00    +0.000 OA
DOCKED: ATOM     33  O   UNL     1      19.247 -12.272   2.118 -1.37 -0.00    +0.000 OA
DOCKED: ATOM     34  H   UNL     1      21.249  -9.797   2.444 -0.56 -0.00    +0.000 HD
DOCKED: ENDBRANCH  27  30
DOCKED: ENDBRANCH  22  24
DOCKED: ENDBRANCH  19  21
DOCKED: ENDBRANCH   1  19
DOCKED: TORSDOF 9
DOCKED: TER
DOCKED: ENDMDL
________________________________________________________________________________


	BEGINNING GENETIC ALGORITHM DOCKING 72 of 100
Run: 72 Seed: 854482088 211996863 [ Run 72 of 100 GA/GALS ]
Beginning LAMARCKIAN GENETIC ALGORITHM (LGA), with a maximum of 2500000 energy evaluations.

Final-Value: -14.975


	FINAL GENETIC ALGORITHM DOCKED STATE
	_______________________________________________


Detailed state:  trans 20.928 -11.286 -6.011 quatxyzw -0.697257 -0.041722 -0.275878 0.660290 center 1.619 0.086 0.013 ntor 9 -144.2684 17.1920 80.4506 172.8256 -15.9138 -164.2397 172.0166 101.6562 155.1945
State:	 20.928 -11.286  -6.011  -0.928 -0.056 -0.367 97.356   -144.27   17.19   80.45  172.83  -15.91 -164.24  172.02  101.66  155.19

DOCKED: MODEL       72
DOCKED: USER    Run = 72
DOCKED: USER    DPF = ligand_dock.biased.dpf
DOCKED: USER  
DOCKED: USER    Estimated Free Energy of Binding    =  -10.40 kcal/mol  [=(1)+(2)+(3)-(4)]
DOCKED: USER    Estimated Inhibition Constant, Ki   =   23.94 nM (nanomolar)  [Temperature = 298.15 K]
DOCKED: USER    
DOCKED: USER    (1) Final Intermolecular Energy     =  -13.08 kcal/mol
DOCKED: USER        vdW + Hbond + desolv Energy     =  -13.08 kcal/mol
DOCKED: USER        Electrostatic Energy            =   +0.00 kcal/mol
DOCKED: USER    (2) Final Total Internal Energy     =   -1.89 kcal/mol
DOCKED: USER    (3) Torsional Free Energy           =   +2.68 kcal/mol
DOCKED: USER    (4) Unbound System's Energy  [=(2)] =   -1.89 kcal/mol
DOCKED: USER    
DOCKED: USER    
DOCKED: USER    NEWDPF move ligand.pdbqt
DOCKED: USER    NEWDPF about 1.619000 0.086000 0.013000
DOCKED: USER    NEWDPF tran0 20.928122 -11.285826 -6.010566
DOCKED: USER    NEWDPF quaternion0 -0.697257 -0.041722 -0.275878 0.660290
DOCKED: USER    NEWDPF axisangle0 -0.928425 -0.055554 -0.367342 97.355988
DOCKED: USER    NEWDPF quat0 -0.928425 -0.055554 -0.367342 97.355988
DOCKED: USER    NEWDPF dihe0 -144.27 17.19 80.45 172.83 -15.91 -164.24 172.02 101.66 155.19 
DOCKED: USER  keepresnum = 1 
DOCKED: USER  
DOCKED: REMARK  Name = 
DOCKED: REMARK  11 active torsions:
DOCKED: REMARK  status: ('A' for Active; 'I' for Inactive)
DOCKED: REMARK    1  A    between atoms: C_2  and  O_3
DOCKED: REMARK    2  A    between atoms: O_3  and  C_4
DOCKED: REMARK    3  A    between atoms: C_4  and  C_5
DOCKED: REMARK    4  A    between atoms: C_10  and  C_11
DOCKED: REMARK    5  A    between atoms: C_11  and  N_12
DOCKED: REMARK    6  A    between atoms: N_12  and  C_13
DOCKED: REMARK    7  A    between atoms: N_12  and  C_15
DOCKED: REMARK    8  A    between atoms: C_13  and  C_14
DOCKED: REMARK    9  A    between atoms: C_15  and  C_16
DOCKED: REMARK   10  A    between atoms: N_21  and  C_22
DOCKED: REMARK   11  A    between atoms: C_25  and  C_26
DOCKED: REMARK                            x       y       z     vdW  Elec       q    Type
DOCKED: REMARK                         _______ _______ _______ _____ _____    ______ ____
DOCKED: USER                              x       y       z     vdW  Elec       q    Type
DOCKED: USER                           _______ _______ _______ _____ _____    ______ ____
DOCKED: ROOT
DOCKED: ATOM      1  C   UNL     1      20.298  -8.988  -6.257 -0.18 -0.00    +0.000 C 
DOCKED: ENDROOT
DOCKED: BRANCH   1   2
DOCKED: ATOM      2  C   UNL     1      19.097  -9.793  -6.663 -0.19 -0.00    +0.000 A 
DOCKED: ATOM      3  C   UNL     1      18.902 -10.158  -8.003 -0.21 -0.00    +0.000 A 
DOCKED: ATOM      4  C   UNL     1      17.773 -10.893  -8.379 -0.16 -0.00    +0.000 A 
DOCKED: ATOM      5  C   UNL     1      16.817 -11.259  -7.420 -0.31 -0.00    +0.000 A 
DOCKED: ATOM      6  C   UNL     1      15.677 -11.988  -7.790 -0.32 -0.00    +0.000 A 
DOCKED: ATOM      7  C   UNL     1      14.705 -12.323  -6.833 -0.32 -0.00    +0.000 A 
DOCKED: ATOM      8  C   UNL     1      14.904 -11.960  -5.491 -0.20 -0.00    +0.000 A 
DOCKED: ATOM      9  C   UNL     1      16.042 -11.240  -5.112 -0.12 -0.00    +0.000 A 
DOCKED: ATOM     10  C   UNL     1      17.002 -10.881  -6.069 -0.28 -0.00    +0.000 A 
DOCKED: ATOM     11  C   UNL     1      18.142 -10.152  -5.699 -0.23 -0.00    +0.000 A 
DOCKED: BRANCH   7  12
DOCKED: ATOM     12  C   UNL     1      13.488 -13.116  -7.236 -0.37 -0.00    +0.000 C 
DOCKED: BRANCH  12  13
DOCKED: ATOM     13  N   UNL     1      12.619 -12.331  -8.140 -0.16 -0.00    +0.000 N 
DOCKED: ATOM     14  H   UNL     1      11.685 -12.600  -7.826 -0.00 -0.00    +0.000 HD
DOCKED: BRANCH  13  15
DOCKED: ATOM     15  C   UNL     1      12.677 -10.870  -7.922 -0.11 -0.00    +0.000 C 
DOCKED: ATOM     16  C   UNL     1      11.989 -10.411  -6.635 -0.11 -0.00    +0.000 C 
DOCKED: ENDBRANCH  13  15
DOCKED: BRANCH  13  17
DOCKED: ATOM     17  C   UNL     1      12.573 -12.756  -9.562 -0.15 -0.00    +0.000 C 
DOCKED: ATOM     18  C   UNL     1      13.809 -13.529 -10.045 -0.25 +0.00    +0.000 C 
DOCKED: ENDBRANCH  13  17
DOCKED: ENDBRANCH  12  13
DOCKED: ENDBRANCH   7  12
DOCKED: ENDBRANCH   1   2
DOCKED: BRANCH   1  19
DOCKED: ATOM     19  O   UNL     1      21.308  -9.864  -5.770 -0.31 -0.00    +0.000 OA
DOCKED: BRANCH  19  21
DOCKED: ATOM     20  O   UNL     1      22.142 -11.258  -4.131 -0.57 -0.00    +0.000 OA
DOCKED: ATOM     21  C   UNL     1      21.298 -10.384  -4.472 -0.48 -0.00    +0.000 C 
DOCKED: ATOM     22  N   UNL     1      20.289  -9.942  -3.553 -0.37 -0.00    +0.000 N 
DOCKED: ATOM     23  H   UNL     1      19.581  -9.350  -3.897 -0.00 -0.00    +0.000 HD
DOCKED: BRANCH  22  24
DOCKED: ATOM     24  C   UNL     1      20.243 -10.306  -2.163 -0.46 -0.00    +0.000 A 
DOCKED: ATOM     25  C   UNL     1      21.389 -10.147  -1.372 -0.57 -0.00    +0.000 A 
DOCKED: ATOM     26  C   UNL     1      21.380 -10.517  -0.025 -0.61 -0.00    +0.000 A 
DOCKED: ATOM     27  C   UNL     1      20.226 -11.077   0.554 -0.60 -0.00    +0.000 A 
DOCKED: ATOM     28  C   UNL     1      19.079 -11.242  -0.244 -0.46 -0.00    +0.000 A 
DOCKED: ATOM     29  C   UNL     1      19.091 -10.870  -1.591 -0.40 -0.00    +0.000 A 
DOCKED: BRANCH  27  30
DOCKED: ATOM     30  C   UNL     1      20.197 -11.479   1.983 -0.77 -0.00    +0.000 C 
DOCKED: ATOM     31  N   UNL     1      20.465 -10.539   3.029 -0.66 -0.00    +0.000 N 
DOCKED: ATOM     32  O   UNL     1      20.331 -10.906   4.324 -0.96 -0.00    +0.000 OA
DOCKED: ATOM     33  O   UNL     1      19.945 -12.677   2.287 -1.61 -0.00    +0.000 OA
DOCKED: ATOM     34  H   UNL     1      20.748  -9.623   2.805 -0.58 -0.00    +0.000 HD
DOCKED: ENDBRANCH  27  30
DOCKED: ENDBRANCH  22  24
DOCKED: ENDBRANCH  19  21
DOCKED: ENDBRANCH   1  19
DOCKED: TORSDOF 9
DOCKED: TER
DOCKED: ENDMDL
________________________________________________________________________________


	BEGINNING GENETIC ALGORITHM DOCKING 73 of 100
Run: 73 Seed: 1803831500 1446542169 [ Run 73 of 100 GA/GALS ]
Beginning LAMARCKIAN GENETIC ALGORITHM (LGA), with a maximum of 2500000 energy evaluations.

Final-Value: -13.675


	FINAL GENETIC ALGORITHM DOCKED STATE
	_______________________________________________


Detailed state:  trans 18.560 -9.108 -4.897 quatxyzw -0.182143 -0.075866 0.130886 -0.971564 center 1.619 0.086 0.013 ntor 9 -147.0158 -92.5805 -129.2243 167.0966 162.8067 162.8797 -52.3405 -116.1702 -74.7972
State:	 18.560  -9.108  -4.897  -0.769 -0.320  0.553 -27.393   -147.02  -92.58 -129.22  167.10  162.81  162.88  -52.34 -116.17  -74.80

DOCKED: MODEL       73
DOCKED: USER    Run = 73
DOCKED: USER    DPF = ligand_dock.biased.dpf
DOCKED: USER  
DOCKED: USER    Estimated Free Energy of Binding    =   -9.53 kcal/mol  [=(1)+(2)+(3)-(4)]
DOCKED: USER    Estimated Inhibition Constant, Ki   =  102.60 nM (nanomolar)  [Temperature = 298.15 K]
DOCKED: USER    
DOCKED: USER    (1) Final Intermolecular Energy     =  -12.22 kcal/mol
DOCKED: USER        vdW + Hbond + desolv Energy     =  -12.22 kcal/mol
DOCKED: USER        Electrostatic Energy            =   +0.00 kcal/mol
DOCKED: USER    (2) Final Total Internal Energy     =   -1.46 kcal/mol
DOCKED: USER    (3) Torsional Free Energy           =   +2.68 kcal/mol
DOCKED: USER    (4) Unbound System's Energy  [=(2)] =   -1.46 kcal/mol
DOCKED: USER    
DOCKED: USER    
DOCKED: USER    NEWDPF move ligand.pdbqt
DOCKED: USER    NEWDPF about 1.619000 0.086000 0.013000
DOCKED: USER    NEWDPF tran0 18.560002 -9.108248 -4.896612
DOCKED: USER    NEWDPF quaternion0 -0.182143 -0.075866 0.130886 -0.971564
DOCKED: USER    NEWDPF axisangle0 -0.769264 -0.320412 0.552782 -27.392664
DOCKED: USER    NEWDPF quat0 -0.769264 -0.320412 0.552782 -27.392664
DOCKED: USER    NEWDPF dihe0 -147.02 -92.58 -129.22 167.10 162.81 162.88 -52.34 -116.17 -74.80 
DOCKED: USER  keepresnum = 1 
DOCKED: USER  
DOCKED: REMARK  Name = 
DOCKED: REMARK  11 active torsions:
DOCKED: REMARK  status: ('A' for Active; 'I' for Inactive)
DOCKED: REMARK    1  A    between atoms: C_2  and  O_3
DOCKED: REMARK    2  A    between atoms: O_3  and  C_4
DOCKED: REMARK    3  A    between atoms: C_4  and  C_5
DOCKED: REMARK    4  A    between atoms: C_10  and  C_11
DOCKED: REMARK    5  A    between atoms: C_11  and  N_12
DOCKED: REMARK    6  A    between atoms: N_12  and  C_13
DOCKED: REMARK    7  A    between atoms: N_12  and  C_15
DOCKED: REMARK    8  A    between atoms: C_13  and  C_14
DOCKED: REMARK    9  A    between atoms: C_15  and  C_16
DOCKED: REMARK   10  A    between atoms: N_21  and  C_22
DOCKED: REMARK   11  A    between atoms: C_25  and  C_26
DOCKED: REMARK                            x       y       z     vdW  Elec       q    Type
DOCKED: REMARK                         _______ _______ _______ _____ _____    ______ ____
DOCKED: USER                              x       y       z     vdW  Elec       q    Type
DOCKED: USER                           _______ _______ _______ _____ _____    ______ ____
DOCKED: ROOT
DOCKED: ATOM      1  C   UNL     1      19.433 -10.084  -6.902 -0.26 -0.00    +0.000 C 
DOCKED: ENDROOT
DOCKED: BRANCH   1   2
DOCKED: ATOM      2  C   UNL     1      17.958 -10.366  -6.912 -0.25 -0.00    +0.000 A 
DOCKED: ATOM      3  C   UNL     1      17.045  -9.405  -6.452 -0.12 -0.00    +0.000 A 
DOCKED: ATOM      4  C   UNL     1      15.673  -9.678  -6.446 -0.11 -0.00    +0.000 A 
DOCKED: ATOM      5  C   UNL     1      15.199 -10.922  -6.887 -0.20 -0.00    +0.000 A 
DOCKED: ATOM      6  C   UNL     1      13.826 -11.209  -6.876 -0.18 -0.00    +0.000 A 
DOCKED: ATOM      7  C   UNL     1      13.358 -12.468  -7.286 -0.26 -0.00    +0.000 A 
DOCKED: ATOM      8  C   UNL     1      14.273 -13.427  -7.748 -0.40 +0.00    +0.000 A 
DOCKED: ATOM      9  C   UNL     1      15.643 -13.147  -7.771 -0.26 +0.00    +0.000 A 
DOCKED: ATOM     10  C   UNL     1      16.117 -11.901  -7.338 -0.33 -0.00    +0.000 A 
DOCKED: ATOM     11  C   UNL     1      17.490 -11.615  -7.349 -0.33 -0.00    +0.000 A 
DOCKED: BRANCH   7  12
DOCKED: ATOM     12  C   UNL     1      11.879 -12.764  -7.281 -0.21 -0.00    +0.000 C 
DOCKED: BRANCH  12  13
DOCKED: ATOM     13  N   UNL     1      11.365 -12.916  -8.660 -0.12 -0.00    +0.000 N 
DOCKED: ATOM     14  H   UNL     1      10.412 -12.560  -8.574 +0.00 -0.00    +0.000 HD
DOCKED: BRANCH  13  15
DOCKED: ATOM     15  C   UNL     1      12.006 -12.024  -9.650 -0.08 -0.00    +0.000 C 
DOCKED: ATOM     16  C   UNL     1      11.548 -10.567  -9.553 -0.03 -0.00    +0.000 C 
DOCKED: ENDBRANCH  13  15
DOCKED: BRANCH  13  17
DOCKED: ATOM     17  C   UNL     1      11.109 -14.301  -9.131 -0.13 -0.00    +0.000 C 
DOCKED: ATOM     18  C   UNL     1      11.642 -14.613 -10.537 -0.13 -0.00    +0.000 C 
DOCKED: ENDBRANCH  13  17
DOCKED: ENDBRANCH  12  13
DOCKED: ENDBRANCH   7  12
DOCKED: ENDBRANCH   1   2
DOCKED: BRANCH   1  19
DOCKED: ATOM     19  O   UNL     1      19.745  -9.254  -5.789 -0.18 -0.00    +0.000 OA
DOCKED: BRANCH  19  21
DOCKED: ATOM     20  O   UNL     1      18.407 -10.096  -4.110 -0.29 -0.00    +0.000 OA
DOCKED: ATOM     21  C   UNL     1      19.532  -9.650  -4.466 -0.30 -0.00    +0.000 C 
DOCKED: ATOM     22  N   UNL     1      20.594  -9.498  -3.514 -0.37 -0.00    +0.000 N 
DOCKED: ATOM     23  H   UNL     1      21.413  -9.037  -3.808 -0.02 -0.00    +0.000 HD
DOCKED: BRANCH  22  24
DOCKED: ATOM     24  C   UNL     1      20.543  -9.976  -2.159 -0.48 -0.00    +0.000 A 
DOCKED: ATOM     25  C   UNL     1      19.593 -10.944  -1.806 -0.36 -0.00    +0.000 A 
DOCKED: ATOM     26  C   UNL     1      19.504 -11.407  -0.491 -0.40 -0.00    +0.000 A 
DOCKED: ATOM     27  C   UNL     1      20.352 -10.891   0.506 -0.61 -0.00    +0.000 A 
DOCKED: ATOM     28  C   UNL     1      21.301  -9.915   0.151 -0.59 -0.00    +0.000 A 
DOCKED: ATOM     29  C   UNL     1      21.388  -9.454  -1.165 -0.55 -0.00    +0.000 A 
DOCKED: BRANCH  27  30
DOCKED: ATOM     30  C   UNL     1      20.271 -11.368   1.910 -0.77 -0.00    +0.000 C 
DOCKED: ATOM     31  N   UNL     1      20.634 -10.523   3.008 -0.63 -0.00    +0.000 N 
DOCKED: ATOM     32  O   UNL     1      20.453 -10.946   4.280 -0.97 -0.00    +0.000 OA
DOCKED: ATOM     33  O   UNL     1      19.889 -12.547   2.145 -1.71 -0.00    +0.000 OA
DOCKED: ATOM     34  H   UNL     1      21.016  -9.633   2.836 -0.60 -0.00    +0.000 HD
DOCKED: ENDBRANCH  27  30
DOCKED: ENDBRANCH  22  24
DOCKED: ENDBRANCH  19  21
DOCKED: ENDBRANCH   1  19
DOCKED: TORSDOF 9
DOCKED: TER
DOCKED: ENDMDL
________________________________________________________________________________


	BEGINNING GENETIC ALGORITHM DOCKING 74 of 100
Run: 74 Seed: 1844445528 87200204 [ Run 74 of 100 GA/GALS ]
Beginning LAMARCKIAN GENETIC ALGORITHM (LGA), with a maximum of 2500000 energy evaluations.

Final-Value: -14.722


	FINAL GENETIC ALGORITHM DOCKED STATE
	_______________________________________________


Detailed state:  trans 20.623 -10.483 -5.806 quatxyzw -0.072483 0.623025 -0.543180 0.558159 center 1.619 0.086 0.013 ntor 9 12.2337 165.1808 -32.5696 -109.3367 -32.9665 58.6254 60.9002 -37.0800 -75.5055
State:	 20.623 -10.483  -5.806  -0.087  0.751 -0.655 112.143     12.23  165.18  -32.57 -109.34  -32.97   58.63   60.90  -37.08  -75.51

DOCKED: MODEL       74
DOCKED: USER    Run = 74
DOCKED: USER    DPF = ligand_dock.biased.dpf
DOCKED: USER  
DOCKED: USER    Estimated Free Energy of Binding    =  -10.72 kcal/mol  [=(1)+(2)+(3)-(4)]
DOCKED: USER    Estimated Inhibition Constant, Ki   =   13.76 nM (nanomolar)  [Temperature = 298.15 K]
DOCKED: USER    
DOCKED: USER    (1) Final Intermolecular Energy     =  -13.41 kcal/mol
DOCKED: USER        vdW + Hbond + desolv Energy     =  -13.41 kcal/mol
DOCKED: USER        Electrostatic Energy            =   +0.00 kcal/mol
DOCKED: USER    (2) Final Total Internal Energy     =   -1.31 kcal/mol
DOCKED: USER    (3) Torsional Free Energy           =   +2.68 kcal/mol
DOCKED: USER    (4) Unbound System's Energy  [=(2)] =   -1.31 kcal/mol
DOCKED: USER    
DOCKED: USER    
DOCKED: USER    NEWDPF move ligand.pdbqt
DOCKED: USER    NEWDPF about 1.619000 0.086000 0.013000
DOCKED: USER    NEWDPF tran0 20.622505 -10.483091 -5.805913
DOCKED: USER    NEWDPF quaternion0 -0.072483 0.623025 -0.543180 0.558159
DOCKED: USER    NEWDPF axisangle0 -0.087357 0.750873 -0.654644 112.142862
DOCKED: USER    NEWDPF quat0 -0.087357 0.750873 -0.654644 112.142862
DOCKED: USER    NEWDPF dihe0 12.23 165.18 -32.57 -109.34 -32.97 58.63 60.90 -37.08 -75.51 
DOCKED: USER  keepresnum = 1 
DOCKED: USER  
DOCKED: REMARK  Name = 
DOCKED: REMARK  11 active torsions:
DOCKED: REMARK  status: ('A' for Active; 'I' for Inactive)
DOCKED: REMARK    1  A    between atoms: C_2  and  O_3
DOCKED: REMARK    2  A    between atoms: O_3  and  C_4
DOCKED: REMARK    3  A    between atoms: C_4  and  C_5
DOCKED: REMARK    4  A    between atoms: C_10  and  C_11
DOCKED: REMARK    5  A    between atoms: C_11  and  N_12
DOCKED: REMARK    6  A    between atoms: N_12  and  C_13
DOCKED: REMARK    7  A    between atoms: N_12  and  C_15
DOCKED: REMARK    8  A    between atoms: C_13  and  C_14
DOCKED: REMARK    9  A    between atoms: C_15  and  C_16
DOCKED: REMARK   10  A    between atoms: N_21  and  C_22
DOCKED: REMARK   11  A    between atoms: C_25  and  C_26
DOCKED: REMARK                            x       y       z     vdW  Elec       q    Type
DOCKED: REMARK                         _______ _______ _______ _____ _____    ______ ____
DOCKED: USER                              x       y       z     vdW  Elec       q    Type
DOCKED: USER                           _______ _______ _______ _____ _____    ______ ____
DOCKED: ROOT
DOCKED: ATOM      1  C   UNL     1      22.165  -8.651  -5.835 -0.26 -0.00    +0.000 C 
DOCKED: ENDROOT
DOCKED: BRANCH   1   2
DOCKED: ATOM      2  C   UNL     1      22.537  -9.525  -6.998 -0.23 -0.00    +0.000 A 
DOCKED: ATOM      3  C   UNL     1      21.546 -10.164  -7.757 -0.23 -0.00    +0.000 A 
DOCKED: ATOM      4  C   UNL     1      21.897 -10.991  -8.829 -0.23 -0.00    +0.000 A 
DOCKED: ATOM      5  C   UNL     1      23.247 -11.201  -9.144 -0.24 -0.00    +0.000 A 
DOCKED: ATOM      6  C   UNL     1      23.610 -12.037 -10.212 -0.23 -0.00    +0.000 A 
DOCKED: ATOM      7  C   UNL     1      24.963 -12.273 -10.503 -0.23 -0.00    +0.000 A 
DOCKED: ATOM      8  C   UNL     1      25.954 -11.630  -9.744 -0.26 -0.00    +0.000 A 
DOCKED: ATOM      9  C   UNL     1      25.602 -10.789  -8.684 -0.33 -0.00    +0.000 A 
DOCKED: ATOM     10  C   UNL     1      24.253 -10.572  -8.373 -0.28 -0.00    +0.000 A 
DOCKED: ATOM     11  C   UNL     1      23.891  -9.736  -7.305 -0.25 -0.00    +0.000 A 
DOCKED: BRANCH   7  12
DOCKED: ATOM     12  C   UNL     1      25.345 -13.163 -11.658 -0.20 -0.00    +0.000 C 
DOCKED: BRANCH  12  13
DOCKED: ATOM     13  N   UNL     1      25.329 -14.587 -11.258 -0.33 -0.00    +0.000 N 
DOCKED: ATOM     14  H   UNL     1      26.071 -14.621 -10.558 -0.56 -0.00    +0.000 HD
DOCKED: BRANCH  13  15
DOCKED: ATOM     15  C   UNL     1      24.111 -15.001 -10.528 -0.40 +0.00    +0.000 C 
DOCKED: ATOM     16  C   UNL     1      22.944 -15.380 -11.443 -0.45 +0.00    +0.000 C 
DOCKED: ENDBRANCH  13  15
DOCKED: BRANCH  13  17
DOCKED: ATOM     17  C   UNL     1      25.833 -15.569 -12.252 -0.31 -0.00    +0.000 C 
DOCKED: ATOM     18  C   UNL     1      26.980 -16.460 -11.754 -0.40 -0.00    +0.000 C 
DOCKED: ENDBRANCH  13  17
DOCKED: ENDBRANCH  12  13
DOCKED: ENDBRANCH   7  12
DOCKED: ENDBRANCH   1   2
DOCKED: BRANCH   1  19
DOCKED: ATOM     19  O   UNL     1      20.982  -9.157  -5.227 -0.27 -0.00    +0.000 OA
DOCKED: BRANCH  19  21
DOCKED: ATOM     20  O   UNL     1      20.768  -8.093  -3.191 -0.40 -0.00    +0.000 OA
DOCKED: ATOM     21  C   UNL     1      20.790  -9.174  -3.842 -0.40 -0.00    +0.000 C 
DOCKED: ATOM     22  N   UNL     1      20.665 -10.436  -3.172 -0.46 -0.00    +0.000 N 
DOCKED: ATOM     23  H   UNL     1      20.807 -11.254  -3.701 -0.03 -0.00    +0.000 HD
DOCKED: BRANCH  22  24
DOCKED: ATOM     24  C   UNL     1      20.347 -10.586  -1.778 -0.45 -0.00    +0.000 A 
DOCKED: ATOM     25  C   UNL     1      21.378 -10.553  -0.829 -0.59 -0.00    +0.000 A 
DOCKED: ATOM     26  C   UNL     1      21.100 -10.722   0.530 -0.55 -0.00    +0.000 A 
DOCKED: ATOM     27  C   UNL     1      19.781 -10.951   0.965 -0.58 -0.00    +0.000 A 
DOCKED: ATOM     28  C   UNL     1      18.749 -10.990   0.010 -0.44 -0.00    +0.000 A 
DOCKED: ATOM     29  C   UNL     1      19.030 -10.820  -1.348 -0.39 -0.00    +0.000 A 
DOCKED: BRANCH  27  30
DOCKED: ATOM     30  C   UNL     1      19.466 -11.136   2.404 -0.70 -0.00    +0.000 C 
DOCKED: ATOM     31  N   UNL     1      20.125 -12.134   3.192 -0.59 -0.00    +0.000 N 
DOCKED: ATOM     32  O   UNL     1      19.894 -12.213   4.522 -0.93 -0.00    +0.000 OA
DOCKED: ATOM     33  O   UNL     1      18.588 -10.410   2.946 -0.63 -0.00    +0.000 OA
DOCKED: ATOM     34  H   UNL     1      20.748 -12.764   2.763 -0.59 -0.00    +0.000 HD
DOCKED: ENDBRANCH  27  30
DOCKED: ENDBRANCH  22  24
DOCKED: ENDBRANCH  19  21
DOCKED: ENDBRANCH   1  19
DOCKED: TORSDOF 9
DOCKED: TER
DOCKED: ENDMDL
________________________________________________________________________________


	BEGINNING GENETIC ALGORITHM DOCKING 75 of 100
Run: 75 Seed: 1441995072 1441320678 [ Run 75 of 100 GA/GALS ]
Beginning LAMARCKIAN GENETIC ALGORITHM (LGA), with a maximum of 2500000 energy evaluations.

Final-Value: -14.191


	FINAL GENETIC ALGORITHM DOCKED STATE
	_______________________________________________


Detailed state:  trans 14.506 -8.520 -2.005 quatxyzw 0.273912 0.356569 0.892476 0.036282 center 1.619 0.086 0.013 ntor 9 -157.6883 110.1956 162.5632 -179.5762 -19.6252 4.0198 142.5442 152.6473 24.9883
State:	 14.506  -8.520  -2.005   0.274  0.357  0.893 175.841   -157.69  110.20  162.56 -179.58  -19.63    4.02  142.54  152.65   24.99

DOCKED: MODEL       75
DOCKED: USER    Run = 75
DOCKED: USER    DPF = ligand_dock.biased.dpf
DOCKED: USER  
DOCKED: USER    Estimated Free Energy of Binding    =   -9.35 kcal/mol  [=(1)+(2)+(3)-(4)]
DOCKED: USER    Estimated Inhibition Constant, Ki   =  140.55 nM (nanomolar)  [Temperature = 298.15 K]
DOCKED: USER    
DOCKED: USER    (1) Final Intermolecular Energy     =  -12.03 kcal/mol
DOCKED: USER        vdW + Hbond + desolv Energy     =  -12.03 kcal/mol
DOCKED: USER        Electrostatic Energy            =   +0.00 kcal/mol
DOCKED: USER    (2) Final Total Internal Energy     =   -2.16 kcal/mol
DOCKED: USER    (3) Torsional Free Energy           =   +2.68 kcal/mol
DOCKED: USER    (4) Unbound System's Energy  [=(2)] =   -2.16 kcal/mol
DOCKED: USER    
DOCKED: USER    
DOCKED: USER    NEWDPF move ligand.pdbqt
DOCKED: USER    NEWDPF about 1.619000 0.086000 0.013000
DOCKED: USER    NEWDPF tran0 14.505650 -8.520147 -2.004932
DOCKED: USER    NEWDPF quaternion0 0.273912 0.356569 0.892476 0.036282
DOCKED: USER    NEWDPF axisangle0 0.274093 0.356804 0.893064 175.841485
DOCKED: USER    NEWDPF quat0 0.274093 0.356804 0.893064 175.841485
DOCKED: USER    NEWDPF dihe0 -157.69 110.20 162.56 -179.58 -19.63 4.02 142.54 152.65 24.99 
DOCKED: USER  keepresnum = 1 
DOCKED: USER  
DOCKED: REMARK  Name = 
DOCKED: REMARK  11 active torsions:
DOCKED: REMARK  status: ('A' for Active; 'I' for Inactive)
DOCKED: REMARK    1  A    between atoms: C_2  and  O_3
DOCKED: REMARK    2  A    between atoms: O_3  and  C_4
DOCKED: REMARK    3  A    between atoms: C_4  and  C_5
DOCKED: REMARK    4  A    between atoms: C_10  and  C_11
DOCKED: REMARK    5  A    between atoms: C_11  and  N_12
DOCKED: REMARK    6  A    between atoms: N_12  and  C_13
DOCKED: REMARK    7  A    between atoms: N_12  and  C_15
DOCKED: REMARK    8  A    between atoms: C_13  and  C_14
DOCKED: REMARK    9  A    between atoms: C_15  and  C_16
DOCKED: REMARK   10  A    between atoms: N_21  and  C_22
DOCKED: REMARK   11  A    between atoms: C_25  and  C_26
DOCKED: REMARK                            x       y       z     vdW  Elec       q    Type
DOCKED: REMARK                         _______ _______ _______ _____ _____    ______ ____
DOCKED: USER                              x       y       z     vdW  Elec       q    Type
DOCKED: USER                           _______ _______ _______ _____ _____    ______ ____
DOCKED: ROOT
DOCKED: ATOM      1  C   UNL     1      13.031  -9.771  -3.419 -0.20 -0.00    +0.000 C 
DOCKED: ENDROOT
DOCKED: BRANCH   1   2
DOCKED: ATOM      2  C   UNL     1      14.400  -9.907  -4.022 -0.19 -0.00    +0.000 A 
DOCKED: ATOM      3  C   UNL     1      14.843 -11.142  -4.517 -0.25 -0.00    +0.000 A 
DOCKED: ATOM      4  C   UNL     1      16.125 -11.269  -5.062 -0.07 -0.00    +0.000 A 
DOCKED: ATOM      5  C   UNL     1      16.985 -10.162  -5.105 -0.21 -0.00    +0.000 A 
DOCKED: ATOM      6  C   UNL     1      18.276 -10.282  -5.641 -0.25 -0.00    +0.000 A 
DOCKED: ATOM      7  C   UNL     1      19.148  -9.180  -5.651 -0.16 -0.00    +0.000 A 
DOCKED: ATOM      8  C   UNL     1      18.701  -7.944  -5.158 -0.14 -0.00    +0.000 A 
DOCKED: ATOM      9  C   UNL     1      17.413  -7.813  -4.630 -0.11 -0.00    +0.000 A 
DOCKED: ATOM     10  C   UNL     1      16.550  -8.917  -4.594 -0.16 -0.00    +0.000 A 
DOCKED: ATOM     11  C   UNL     1      15.259  -8.797  -4.057 -0.15 -0.00    +0.000 A 
DOCKED: BRANCH   7  12
DOCKED: ATOM     12  C   UNL     1      20.529  -9.314  -6.239 -0.21 -0.00    +0.000 C 
DOCKED: BRANCH  12  13
DOCKED: ATOM     13  N   UNL     1      21.392 -10.154  -5.380 -0.35 -0.00    +0.000 N 
DOCKED: ATOM     14  H   UNL     1      22.255  -9.610  -5.345 -0.02 -0.00    +0.000 HD
DOCKED: BRANCH  13  15
DOCKED: ATOM     15  C   UNL     1      20.950 -10.240  -3.972 -0.48 -0.00    +0.000 C 
DOCKED: ATOM     16  C   UNL     1      21.459  -9.093  -3.096 -0.44 -0.00    +0.000 C 
DOCKED: ENDBRANCH  13  15
DOCKED: BRANCH  13  17
DOCKED: ATOM     17  C   UNL     1      21.884 -11.428  -5.966 -0.48 -0.00    +0.000 C 
DOCKED: ATOM     18  C   UNL     1      22.901 -11.264  -7.104 -0.47 -0.00    +0.000 C 
DOCKED: ENDBRANCH  13  17
DOCKED: ENDBRANCH  12  13
DOCKED: ENDBRANCH   7  12
DOCKED: ENDBRANCH   1   2
DOCKED: BRANCH   1  19
DOCKED: ATOM     19  O   UNL     1      13.130  -9.064  -2.187 -0.16 -0.00    +0.000 OA
DOCKED: BRANCH  19  21
DOCKED: ATOM     20  O   UNL     1      14.640  -8.079  -0.749 -0.27 -0.00    +0.000 OA
DOCKED: ATOM     21  C   UNL     1      14.269  -9.108  -1.378 -0.23 -0.00    +0.000 C 
DOCKED: ATOM     22  N   UNL     1      15.030 -10.322  -1.313 -0.25 -0.00    +0.000 N 
DOCKED: ATOM     23  H   UNL     1      14.772 -11.060  -1.912 -0.01 -0.00    +0.000 HD
DOCKED: BRANCH  22  24
DOCKED: ATOM     24  C   UNL     1      16.146 -10.533  -0.432 -0.28 -0.00    +0.000 A 
DOCKED: ATOM     25  C   UNL     1      17.264 -11.242  -0.894 -0.31 -0.00    +0.000 A 
DOCKED: ATOM     26  C   UNL     1      18.351 -11.484  -0.051 -0.44 -0.00    +0.000 A 
DOCKED: ATOM     27  C   UNL     1      18.332 -11.040   1.284 -0.45 -0.00    +0.000 A 
DOCKED: ATOM     28  C   UNL     1      17.206 -10.335   1.748 -0.36 +0.00    +0.000 A 
DOCKED: ATOM     29  C   UNL     1      16.120 -10.093   0.902 -0.27 +0.00    +0.000 A 
DOCKED: BRANCH  27  30
DOCKED: ATOM     30  C   UNL     1      19.476 -11.290   2.197 -0.70 -0.00    +0.000 C 
DOCKED: ATOM     31  N   UNL     1      19.920 -10.296   3.127 -0.62 -0.00    +0.000 N 
DOCKED: ATOM     32  O   UNL     1      20.897 -10.587   4.017 -0.92 -0.00    +0.000 OA
DOCKED: ATOM     33  O   UNL     1      20.081 -12.396   2.146 -1.85 -0.00    +0.000 OA
DOCKED: ATOM     34  H   UNL     1      19.514  -9.400   3.118 -0.57 -0.00    +0.000 HD
DOCKED: ENDBRANCH  27  30
DOCKED: ENDBRANCH  22  24
DOCKED: ENDBRANCH  19  21
DOCKED: ENDBRANCH   1  19
DOCKED: TORSDOF 9
DOCKED: TER
DOCKED: ENDMDL
________________________________________________________________________________


	BEGINNING GENETIC ALGORITHM DOCKING 76 of 100
Run: 76 Seed: 1836250311 1451488799 [ Run 76 of 100 GA/GALS ]
Beginning LAMARCKIAN GENETIC ALGORITHM (LGA), with a maximum of 2500000 energy evaluations.

Final-Value: -15.576


	FINAL GENETIC ALGORITHM DOCKED STATE
	_______________________________________________


Detailed state:  trans 18.905 -11.036 1.742 quatxyzw -0.894471 -0.053118 -0.443609 -0.017619 center 1.619 0.086 0.013 ntor 9 180.0000 -147.6472 179.6205 -166.4912 -44.5872 -157.7429 -99.1081 -178.6422 -16.4997
State:	 18.905 -11.036   1.742  -0.895 -0.053 -0.444 -177.981    180.00 -147.65  179.62 -166.49  -44.59 -157.74  -99.11 -178.64  -16.50

DOCKED: MODEL       76
DOCKED: USER    Run = 76
DOCKED: USER    DPF = ligand_dock.biased.dpf
DOCKED: USER  
DOCKED: USER    Estimated Free Energy of Binding    =  -10.03 kcal/mol  [=(1)+(2)+(3)-(4)]
DOCKED: USER    Estimated Inhibition Constant, Ki   =   44.29 nM (nanomolar)  [Temperature = 298.15 K]
DOCKED: USER    
DOCKED: USER    (1) Final Intermolecular Energy     =  -12.72 kcal/mol
DOCKED: USER        vdW + Hbond + desolv Energy     =  -12.72 kcal/mol
DOCKED: USER        Electrostatic Energy            =   +0.00 kcal/mol
DOCKED: USER    (2) Final Total Internal Energy     =   -2.86 kcal/mol
DOCKED: USER    (3) Torsional Free Energy           =   +2.68 kcal/mol
DOCKED: USER    (4) Unbound System's Energy  [=(2)] =   -2.86 kcal/mol
DOCKED: USER    
DOCKED: USER    
DOCKED: USER    NEWDPF move ligand.pdbqt
DOCKED: USER    NEWDPF about 1.619000 0.086000 0.013000
DOCKED: USER    NEWDPF tran0 18.904995 -11.035558 1.742111
DOCKED: USER    NEWDPF quaternion0 -0.894471 -0.053118 -0.443609 -0.017619
DOCKED: USER    NEWDPF axisangle0 -0.894610 -0.053127 -0.443678 -177.980957
DOCKED: USER    NEWDPF quat0 -0.894610 -0.053127 -0.443678 -177.980957
DOCKED: USER    NEWDPF dihe0 180.00 -147.65 179.62 -166.49 -44.59 -157.74 -99.11 -178.64 -16.50 
DOCKED: USER  keepresnum = 1 
DOCKED: USER  
DOCKED: REMARK  Name = 
DOCKED: REMARK  11 active torsions:
DOCKED: REMARK  status: ('A' for Active; 'I' for Inactive)
DOCKED: REMARK    1  A    between atoms: C_2  and  O_3
DOCKED: REMARK    2  A    between atoms: O_3  and  C_4
DOCKED: REMARK    3  A    between atoms: C_4  and  C_5
DOCKED: REMARK    4  A    between atoms: C_10  and  C_11
DOCKED: REMARK    5  A    between atoms: C_11  and  N_12
DOCKED: REMARK    6  A    between atoms: N_12  and  C_13
DOCKED: REMARK    7  A    between atoms: N_12  and  C_15
DOCKED: REMARK    8  A    between atoms: C_13  and  C_14
DOCKED: REMARK    9  A    between atoms: C_15  and  C_16
DOCKED: REMARK   10  A    between atoms: N_21  and  C_22
DOCKED: REMARK   11  A    between atoms: C_25  and  C_26
DOCKED: REMARK                            x       y       z     vdW  Elec       q    Type
DOCKED: REMARK                         _______ _______ _______ _____ _____    ______ ____
DOCKED: USER                              x       y       z     vdW  Elec       q    Type
DOCKED: USER                           _______ _______ _______ _____ _____    ______ ____
DOCKED: ROOT
DOCKED: ATOM      1  C   UNL     1      17.227 -10.868   3.443 -0.40 +0.00    +0.000 C 
DOCKED: ENDROOT
DOCKED: BRANCH   1   2
DOCKED: ATOM      2  C   UNL     1      16.489 -11.056   2.149 -0.40 +0.00    +0.000 A 
DOCKED: ATOM      3  C   UNL     1      16.054 -12.329   1.753 -0.11 +0.00    +0.000 A 
DOCKED: ATOM      4  C   UNL     1      15.383 -12.502   0.538 -0.44 +0.00    +0.000 A 
DOCKED: ATOM      5  C   UNL     1      15.151 -11.404  -0.303 -0.33 +0.00    +0.000 A 
DOCKED: ATOM      6  C   UNL     1      14.487 -11.570  -1.528 -0.34 +0.00    +0.000 A 
DOCKED: ATOM      7  C   UNL     1      14.287 -10.474  -2.383 -0.27 -0.00    +0.000 A 
DOCKED: ATOM      8  C   UNL     1      14.719  -9.200  -1.983 -0.21 -0.00    +0.000 A 
DOCKED: ATOM      9  C   UNL     1      15.375  -9.024  -0.761 -0.12 -0.00    +0.000 A 
DOCKED: ATOM     10  C   UNL     1      15.600 -10.120   0.084 -0.26 +0.00    +0.000 A 
DOCKED: ATOM     11  C   UNL     1      16.265  -9.954   1.308 -0.26 +0.00    +0.000 A 
DOCKED: BRANCH   7  12
DOCKED: ATOM     12  C   UNL     1      13.562 -10.658  -3.692 -0.22 -0.00    +0.000 C 
DOCKED: BRANCH  12  13
DOCKED: ATOM     13  N   UNL     1      14.518 -10.861  -4.803 -0.25 -0.00    +0.000 N 
DOCKED: ATOM     14  H   UNL     1      14.285 -10.089  -5.429 +0.00 -0.00    +0.000 HD
DOCKED: BRANCH  13  15
DOCKED: ATOM     15  C   UNL     1      15.932 -10.629  -4.439 -0.21 -0.00    +0.000 C 
DOCKED: ATOM     16  C   UNL     1      16.517  -9.343  -5.028 -0.18 -0.00    +0.000 C 
DOCKED: ENDBRANCH  13  15
DOCKED: BRANCH  13  17
DOCKED: ATOM     17  C   UNL     1      14.278 -12.028  -5.691 -0.31 -0.00    +0.000 C 
DOCKED: ATOM     18  C   UNL     1      15.155 -12.072  -6.949 -0.35 -0.00    +0.000 C 
DOCKED: ENDBRANCH  13  17
DOCKED: ENDBRANCH  12  13
DOCKED: ENDBRANCH   7  12
DOCKED: ENDBRANCH   1   2
DOCKED: BRANCH   1  19
DOCKED: ATOM     19  O   UNL     1      18.626 -10.977   3.206 -0.66 -0.00    +0.000 OA
DOCKED: BRANCH  19  21
DOCKED: ATOM     20  O   UNL     1      19.497 -12.411   1.622 -1.58 -0.00    +0.000 OA
DOCKED: ATOM     21  C   UNL     1      19.161 -11.237   1.941 -0.65 -0.00    +0.000 C 
DOCKED: ATOM     22  N   UNL     1      19.365 -10.145   1.033 -0.46 -0.00    +0.000 N 
DOCKED: ATOM     23  H   UNL     1      19.200  -9.233   1.367 -0.12 -0.00    +0.000 HD
DOCKED: BRANCH  22  24
DOCKED: ATOM     24  C   UNL     1      19.792 -10.293  -0.331 -0.44 -0.00    +0.000 A 
DOCKED: ATOM     25  C   UNL     1      19.038 -11.088  -1.206 -0.40 -0.00    +0.000 A 
DOCKED: ATOM     26  C   UNL     1      19.444 -11.271  -2.530 -0.26 -0.00    +0.000 A 
DOCKED: ATOM     27  C   UNL     1      20.630 -10.678  -3.001 -0.43 -0.00    +0.000 A 
DOCKED: ATOM     28  C   UNL     1      21.389  -9.887  -2.120 -0.51 -0.00    +0.000 A 
DOCKED: ATOM     29  C   UNL     1      20.980  -9.705  -0.795 -0.59 -0.00    +0.000 A 
DOCKED: BRANCH  27  30
DOCKED: ATOM     30  C   UNL     1      21.081 -10.862  -4.404 -0.52 -0.00    +0.000 C 
DOCKED: ATOM     31  N   UNL     1      21.969  -9.931  -5.032 -0.36 -0.00    +0.000 N 
DOCKED: ATOM     32  O   UNL     1      22.444 -10.177  -6.274 -0.37 -0.00    +0.000 OA
DOCKED: ATOM     33  O   UNL     1      20.663 -11.853  -5.065 -0.68 -0.00    +0.000 OA
DOCKED: ATOM     34  H   UNL     1      22.233  -9.110  -4.559 -0.03 -0.00    +0.000 HD
DOCKED: ENDBRANCH  27  30
DOCKED: ENDBRANCH  22  24
DOCKED: ENDBRANCH  19  21
DOCKED: ENDBRANCH   1  19
DOCKED: TORSDOF 9
DOCKED: TER
DOCKED: ENDMDL
________________________________________________________________________________


	BEGINNING GENETIC ALGORITHM DOCKING 77 of 100
Run: 77 Seed: 1843285456 1821319686 [ Run 77 of 100 GA/GALS ]
Beginning LAMARCKIAN GENETIC ALGORITHM (LGA), with a maximum of 2500000 energy evaluations.

Final-Value: -14.541


	FINAL GENETIC ALGORITHM DOCKED STATE
	_______________________________________________


Detailed state:  trans 20.219 -5.644 -4.186 quatxyzw 0.576188 -0.193619 -0.747471 -0.267966 center 1.619 0.086 0.013 ntor 9 -149.4427 153.4898 165.7644 127.3773 -106.1141 -141.6642 140.1892 126.6589 48.1388
State:	 20.219  -5.644  -4.186   0.598 -0.201 -0.776 -148.914   -149.44  153.49  165.76  127.38 -106.11 -141.66  140.19  126.66   48.14

DOCKED: MODEL       77
DOCKED: USER    Run = 77
DOCKED: USER    DPF = ligand_dock.biased.dpf
DOCKED: USER  
DOCKED: USER    Estimated Free Energy of Binding    =  -10.31 kcal/mol  [=(1)+(2)+(3)-(4)]
DOCKED: USER    Estimated Inhibition Constant, Ki   =   27.87 nM (nanomolar)  [Temperature = 298.15 K]
DOCKED: USER    
DOCKED: USER    (1) Final Intermolecular Energy     =  -12.99 kcal/mol
DOCKED: USER        vdW + Hbond + desolv Energy     =  -12.99 kcal/mol
DOCKED: USER        Electrostatic Energy            =   +0.00 kcal/mol
DOCKED: USER    (2) Final Total Internal Energy     =   -1.55 kcal/mol
DOCKED: USER    (3) Torsional Free Energy           =   +2.68 kcal/mol
DOCKED: USER    (4) Unbound System's Energy  [=(2)] =   -1.55 kcal/mol
DOCKED: USER    
DOCKED: USER    
DOCKED: USER    NEWDPF move ligand.pdbqt
DOCKED: USER    NEWDPF about 1.619000 0.086000 0.013000
DOCKED: USER    NEWDPF tran0 20.218744 -5.644072 -4.185515
DOCKED: USER    NEWDPF quaternion0 0.576188 -0.193619 -0.747471 -0.267966
DOCKED: USER    NEWDPF axisangle0 0.598060 -0.200969 -0.775845 -148.913514
DOCKED: USER    NEWDPF quat0 0.598060 -0.200969 -0.775845 -148.913514
DOCKED: USER    NEWDPF dihe0 -149.44 153.49 165.76 127.38 -106.11 -141.66 140.19 126.66 48.14 
DOCKED: USER  keepresnum = 1 
DOCKED: USER  
DOCKED: REMARK  Name = 
DOCKED: REMARK  11 active torsions:
DOCKED: REMARK  status: ('A' for Active; 'I' for Inactive)
DOCKED: REMARK    1  A    between atoms: C_2  and  O_3
DOCKED: REMARK    2  A    between atoms: O_3  and  C_4
DOCKED: REMARK    3  A    between atoms: C_4  and  C_5
DOCKED: REMARK    4  A    between atoms: C_10  and  C_11
DOCKED: REMARK    5  A    between atoms: C_11  and  N_12
DOCKED: REMARK    6  A    between atoms: N_12  and  C_13
DOCKED: REMARK    7  A    between atoms: N_12  and  C_15
DOCKED: REMARK    8  A    between atoms: C_13  and  C_14
DOCKED: REMARK    9  A    between atoms: C_15  and  C_16
DOCKED: REMARK   10  A    between atoms: N_21  and  C_22
DOCKED: REMARK   11  A    between atoms: C_25  and  C_26
DOCKED: REMARK                            x       y       z     vdW  Elec       q    Type
DOCKED: REMARK                         _______ _______ _______ _____ _____    ______ ____
DOCKED: USER                              x       y       z     vdW  Elec       q    Type
DOCKED: USER                           _______ _______ _______ _____ _____    ______ ____
DOCKED: ROOT
DOCKED: ATOM      1  C   UNL     1      22.356  -5.567  -5.264 -0.15 -0.00    +0.000 C 
DOCKED: ENDROOT
DOCKED: BRANCH   1   2
DOCKED: ATOM      2  C   UNL     1      22.479  -4.709  -4.038 -0.17 -0.00    +0.000 A 
DOCKED: ATOM      3  C   UNL     1      23.740  -4.386  -3.515 -0.12 -0.00    +0.000 A 
DOCKED: ATOM      4  C   UNL     1      23.849  -3.601  -2.363 -0.25 -0.00    +0.000 A 
DOCKED: ATOM      5  C   UNL     1      22.696  -3.142  -1.710 -0.26 -0.00    +0.000 A 
DOCKED: ATOM      6  C   UNL     1      22.796  -2.363  -0.547 -0.27 -0.00    +0.000 A 
DOCKED: ATOM      7  C   UNL     1      21.639  -1.934   0.123 -0.33 -0.00    +0.000 A 
DOCKED: ATOM      8  C   UNL     1      20.378  -2.255  -0.403 -0.28 -0.00    +0.000 A 
DOCKED: ATOM      9  C   UNL     1      20.269  -3.025  -1.565 -0.25 -0.00    +0.000 A 
DOCKED: ATOM     10  C   UNL     1      21.421  -3.477  -2.223 -0.23 -0.00    +0.000 A 
DOCKED: ATOM     11  C   UNL     1      21.321  -4.258  -3.385 -0.18 -0.00    +0.000 A 
DOCKED: BRANCH   7  12
DOCKED: ATOM     12  C   UNL     1      21.754  -1.087   1.365 -0.36 -0.00    +0.000 C 
DOCKED: BRANCH  12  13
DOCKED: ATOM     13  N   UNL     1      20.537  -1.199   2.198 -0.44 -0.00    +0.000 N 
DOCKED: ATOM     14  H   UNL     1      20.807  -0.691   3.041 -0.03 -0.00    +0.000 HD
DOCKED: BRANCH  13  15
DOCKED: ATOM     15  C   UNL     1      19.371  -0.455   1.675 -0.30 -0.00    +0.000 C 
DOCKED: ATOM     16  C   UNL     1      19.439   1.053   1.926 -0.27 -0.00    +0.000 C 
DOCKED: ENDBRANCH  13  15
DOCKED: BRANCH  13  17
DOCKED: ATOM     17  C   UNL     1      20.230  -2.539   2.760 -0.61 -0.00    +0.000 C 
DOCKED: ATOM     18  C   UNL     1      20.364  -2.644   4.286 -0.69 -0.00    +0.000 C 
DOCKED: ENDBRANCH  13  17
DOCKED: ENDBRANCH  12  13
DOCKED: ENDBRANCH   7  12
DOCKED: ENDBRANCH   1   2
DOCKED: BRANCH   1  19
DOCKED: ATOM     19  O   UNL     1      21.079  -6.195  -5.271 -0.13 -0.00    +0.000 OA
DOCKED: BRANCH  19  21
DOCKED: ATOM     20  O   UNL     1      19.404  -6.919  -3.859 -0.17 -0.00    +0.000 OA
DOCKED: ATOM     21  C   UNL     1      20.615  -6.979  -4.211 -0.26 -0.00    +0.000 C 
DOCKED: ATOM     22  N   UNL     1      21.542  -7.812  -3.502 -0.35 -0.00    +0.000 N 
DOCKED: ATOM     23  H   UNL     1      22.497  -7.737  -3.733 -0.03 -0.00    +0.000 HD
DOCKED: BRANCH  22  24
DOCKED: ATOM     24  C   UNL     1      21.172  -8.749  -2.478 -0.44 -0.00    +0.000 A 
DOCKED: ATOM     25  C   UNL     1      20.527  -9.942  -2.837 -0.45 -0.00    +0.000 A 
DOCKED: ATOM     26  C   UNL     1      20.132 -10.859  -1.859 -0.37 -0.00    +0.000 A 
DOCKED: ATOM     27  C   UNL     1      20.355 -10.590  -0.496 -0.55 -0.00    +0.000 A 
DOCKED: ATOM     28  C   UNL     1      20.996  -9.390  -0.138 -0.54 -0.00    +0.000 A 
DOCKED: ATOM     29  C   UNL     1      21.391  -8.474  -1.118 -0.36 -0.00    +0.000 A 
DOCKED: BRANCH  27  30
DOCKED: ATOM     30  C   UNL     1      19.940 -11.550   0.557 -0.65 -0.00    +0.000 C 
DOCKED: ATOM     31  N   UNL     1      20.730 -11.755   1.734 -0.73 -0.00    +0.000 N 
DOCKED: ATOM     32  O   UNL     1      20.278 -12.557   2.725 -1.68 -0.00    +0.000 OA
DOCKED: ATOM     33  O   UNL     1      18.877 -12.213   0.410 -0.74 -0.00    +0.000 OA
DOCKED: ATOM     34  H   UNL     1      21.603 -11.310   1.822 -0.34 -0.00    +0.000 HD
DOCKED: ENDBRANCH  27  30
DOCKED: ENDBRANCH  22  24
DOCKED: ENDBRANCH  19  21
DOCKED: ENDBRANCH   1  19
DOCKED: TORSDOF 9
DOCKED: TER
DOCKED: ENDMDL
________________________________________________________________________________


	BEGINNING GENETIC ALGORITHM DOCKING 78 of 100
Run: 78 Seed: 466246667 343459431 [ Run 78 of 100 GA/GALS ]
Beginning LAMARCKIAN GENETIC ALGORITHM (LGA), with a maximum of 2500000 energy evaluations.

Final-Value: -15.177


	FINAL GENETIC ALGORITHM DOCKED STATE
	_______________________________________________


Detailed state:  trans 21.088 -8.211 -3.934 quatxyzw 0.352309 0.234782 -0.643752 -0.637447 center 1.619 0.086 0.013 ntor 9 -17.1514 -2.0926 80.6260 -57.5572 20.7745 107.6686 -50.4675 -178.5371 171.4745
State:	 21.088  -8.211  -3.934   0.457  0.305 -0.836 -100.797    -17.15   -2.09   80.63  -57.56   20.77  107.67  -50.47 -178.54  171.47

DOCKED: MODEL       78
DOCKED: USER    Run = 78
DOCKED: USER    DPF = ligand_dock.biased.dpf
DOCKED: USER  
DOCKED: USER    Estimated Free Energy of Binding    =  -10.94 kcal/mol  [=(1)+(2)+(3)-(4)]
DOCKED: USER    Estimated Inhibition Constant, Ki   =    9.62 nM (nanomolar)  [Temperature = 298.15 K]
DOCKED: USER    
DOCKED: USER    (1) Final Intermolecular Energy     =  -13.62 kcal/mol
DOCKED: USER        vdW + Hbond + desolv Energy     =  -13.62 kcal/mol
DOCKED: USER        Electrostatic Energy            =   +0.00 kcal/mol
DOCKED: USER    (2) Final Total Internal Energy     =   -1.56 kcal/mol
DOCKED: USER    (3) Torsional Free Energy           =   +2.68 kcal/mol
DOCKED: USER    (4) Unbound System's Energy  [=(2)] =   -1.56 kcal/mol
DOCKED: USER    
DOCKED: USER    
DOCKED: USER    NEWDPF move ligand.pdbqt
DOCKED: USER    NEWDPF about 1.619000 0.086000 0.013000
DOCKED: USER    NEWDPF tran0 21.088470 -8.211061 -3.933872
DOCKED: USER    NEWDPF quaternion0 0.352309 0.234782 -0.643752 -0.637447
DOCKED: USER    NEWDPF axisangle0 0.457250 0.304717 -0.835506 -100.796534
DOCKED: USER    NEWDPF quat0 0.457250 0.304717 -0.835506 -100.796534
DOCKED: USER    NEWDPF dihe0 -17.15 -2.09 80.63 -57.56 20.77 107.67 -50.47 -178.54 171.47 
DOCKED: USER  keepresnum = 1 
DOCKED: USER  
DOCKED: REMARK  Name = 
DOCKED: REMARK  11 active torsions:
DOCKED: REMARK  status: ('A' for Active; 'I' for Inactive)
DOCKED: REMARK    1  A    between atoms: C_2  and  O_3
DOCKED: REMARK    2  A    between atoms: O_3  and  C_4
DOCKED: REMARK    3  A    between atoms: C_4  and  C_5
DOCKED: REMARK    4  A    between atoms: C_10  and  C_11
DOCKED: REMARK    5  A    between atoms: C_11  and  N_12
DOCKED: REMARK    6  A    between atoms: N_12  and  C_13
DOCKED: REMARK    7  A    between atoms: N_12  and  C_15
DOCKED: REMARK    8  A    between atoms: C_13  and  C_14
DOCKED: REMARK    9  A    between atoms: C_15  and  C_16
DOCKED: REMARK   10  A    between atoms: N_21  and  C_22
DOCKED: REMARK   11  A    between atoms: C_25  and  C_26
DOCKED: REMARK                            x       y       z     vdW  Elec       q    Type
DOCKED: REMARK                         _______ _______ _______ _____ _____    ______ ____
DOCKED: USER                              x       y       z     vdW  Elec       q    Type
DOCKED: USER                           _______ _______ _______ _____ _____    ______ ____
DOCKED: ROOT
DOCKED: ATOM      1  C   UNL     1      21.151  -6.658  -5.756 -0.13 -0.00    +0.000 C 
DOCKED: ENDROOT
DOCKED: BRANCH   1   2
DOCKED: ATOM      2  C   UNL     1      21.115  -5.828  -4.505 -0.18 -0.00    +0.000 A 
DOCKED: ATOM      3  C   UNL     1      19.924  -5.681  -3.779 -0.15 -0.00    +0.000 A 
DOCKED: ATOM      4  C   UNL     1      19.892  -4.893  -2.624 -0.00 -0.00    +0.000 A 
DOCKED: ATOM      5  C   UNL     1      21.049  -4.230  -2.189 -0.31 -0.00    +0.000 A 
DOCKED: ATOM      6  C   UNL     1      21.023  -3.430  -1.036 -0.36 +0.00    +0.000 A 
DOCKED: ATOM      7  C   UNL     1      22.175  -2.740  -0.623 -0.30 +0.00    +0.000 A 
DOCKED: ATOM      8  C   UNL     1      23.367  -2.892  -1.349 -0.27 +0.00    +0.000 A 
DOCKED: ATOM      9  C   UNL     1      23.403  -3.694  -2.494 -0.24 -0.00    +0.000 A 
DOCKED: ATOM     10  C   UNL     1      22.249  -4.363  -2.925 -0.24 -0.00    +0.000 A 
DOCKED: ATOM     11  C   UNL     1      22.275  -5.163  -4.078 -0.18 -0.00    +0.000 A 
DOCKED: BRANCH   7  12
DOCKED: ATOM     12  C   UNL     1      22.142  -1.892   0.622 -0.26 -0.00    +0.000 C 
DOCKED: BRANCH  12  13
DOCKED: ATOM     13  N   UNL     1      20.792  -1.331   0.847 -0.30 -0.00    +0.000 N 
DOCKED: ATOM     14  H   UNL     1      20.329  -1.523  -0.043 +0.00 -0.00    +0.000 HD
DOCKED: BRANCH  13  15
DOCKED: ATOM     15  C   UNL     1      19.988  -2.063   1.848 -0.52 -0.00    +0.000 C 
DOCKED: ATOM     16  C   UNL     1      20.678  -2.206   3.207 -0.77 -0.00    +0.000 C 
DOCKED: ENDBRANCH  13  15
DOCKED: BRANCH  13  17
DOCKED: ATOM     17  C   UNL     1      20.682   0.149   0.909 -0.22 -0.00    +0.000 C 
DOCKED: ATOM     18  C   UNL     1      21.773   0.843   1.735 -0.30 -0.00    +0.000 C 
DOCKED: ENDBRANCH  13  17
DOCKED: ENDBRANCH  12  13
DOCKED: ENDBRANCH   7  12
DOCKED: ENDBRANCH   1   2
DOCKED: BRANCH   1  19
DOCKED: ATOM     19  O   UNL     1      21.255  -8.033  -5.405 -0.21 -0.00    +0.000 OA
DOCKED: BRANCH  19  21
DOCKED: ATOM     20  O   UNL     1      22.141  -7.946  -3.277 -0.32 -0.00    +0.000 OA
DOCKED: ATOM     21  C   UNL     1      21.322  -8.473  -4.080 -0.36 -0.00    +0.000 C 
DOCKED: ATOM     22  N   UNL     1      20.484  -9.559  -3.663 -0.35 -0.00    +0.000 N 
DOCKED: ATOM     23  H   UNL     1      19.949 -10.018  -4.351 +0.00 -0.00    +0.000 HD
DOCKED: BRANCH  22  24
DOCKED: ATOM     24  C   UNL     1      20.372 -10.023  -2.307 -0.46 -0.00    +0.000 A 
DOCKED: ATOM     25  C   UNL     1      21.512 -10.044  -1.490 -0.48 -0.00    +0.000 A 
DOCKED: ATOM     26  C   UNL     1      21.438 -10.514  -0.177 -0.62 -0.00    +0.000 A 
DOCKED: ATOM     27  C   UNL     1      20.221 -10.996   0.341 -0.59 -0.00    +0.000 A 
DOCKED: ATOM     28  C   UNL     1      19.080 -10.981  -0.483 -0.44 -0.00    +0.000 A 
DOCKED: ATOM     29  C   UNL     1      19.158 -10.509  -1.796 -0.36 -0.00    +0.000 A 
DOCKED: BRANCH  27  30
DOCKED: ATOM     30  C   UNL     1      20.122 -11.503   1.733 -0.76 -0.00    +0.000 C 
DOCKED: ATOM     31  N   UNL     1      20.458 -10.678   2.854 -0.66 -0.00    +0.000 N 
DOCKED: ATOM     32  O   UNL     1      20.261 -11.129   4.113 -1.11 -0.00    +0.000 OA
DOCKED: ATOM     33  O   UNL     1      19.747 -12.690   1.937 -1.59 -0.00    +0.000 OA
DOCKED: ATOM     34  H   UNL     1      20.834  -9.780   2.706 -0.59 -0.00    +0.000 HD
DOCKED: ENDBRANCH  27  30
DOCKED: ENDBRANCH  22  24
DOCKED: ENDBRANCH  19  21
DOCKED: ENDBRANCH   1  19
DOCKED: TORSDOF 9
DOCKED: TER
DOCKED: ENDMDL
________________________________________________________________________________


	BEGINNING GENETIC ALGORITHM DOCKING 79 of 100
Run: 79 Seed: 1552425261 429994658 [ Run 79 of 100 GA/GALS ]
Beginning LAMARCKIAN GENETIC ALGORITHM (LGA), with a maximum of 2500000 energy evaluations.

Final-Value: -14.796


	FINAL GENETIC ALGORITHM DOCKED STATE
	_______________________________________________


Detailed state:  trans 16.042 -3.718 4.721 quatxyzw -0.591205 -0.368514 -0.624917 0.352354 center 1.619 0.086 0.013 ntor 9 -171.1571 -3.5188 134.8828 -67.3621 109.0811 81.9830 -91.2156 -139.2360 141.5574
State:	 16.042  -3.718   4.721  -0.632 -0.394 -0.668 138.737   -171.16   -3.52  134.88  -67.36  109.08   81.98  -91.22 -139.24  141.56

DOCKED: MODEL       79
DOCKED: USER    Run = 79
DOCKED: USER    DPF = ligand_dock.biased.dpf
DOCKED: USER  
DOCKED: USER    Estimated Free Energy of Binding    =  -10.17 kcal/mol  [=(1)+(2)+(3)-(4)]
DOCKED: USER    Estimated Inhibition Constant, Ki   =   35.30 nM (nanomolar)  [Temperature = 298.15 K]
DOCKED: USER    
DOCKED: USER    (1) Final Intermolecular Energy     =  -12.85 kcal/mol
DOCKED: USER        vdW + Hbond + desolv Energy     =  -12.85 kcal/mol
DOCKED: USER        Electrostatic Energy            =   +0.00 kcal/mol
DOCKED: USER    (2) Final Total Internal Energy     =   -1.94 kcal/mol
DOCKED: USER    (3) Torsional Free Energy           =   +2.68 kcal/mol
DOCKED: USER    (4) Unbound System's Energy  [=(2)] =   -1.94 kcal/mol
DOCKED: USER    
DOCKED: USER    
DOCKED: USER    NEWDPF move ligand.pdbqt
DOCKED: USER    NEWDPF about 1.619000 0.086000 0.013000
DOCKED: USER    NEWDPF tran0 16.042031 -3.718495 4.720962
DOCKED: USER    NEWDPF quaternion0 -0.591205 -0.368514 -0.624917 0.352354
DOCKED: USER    NEWDPF axisangle0 -0.631719 -0.393768 -0.667741 138.737244
DOCKED: USER    NEWDPF quat0 -0.631719 -0.393768 -0.667741 138.737244
DOCKED: USER    NEWDPF dihe0 -171.16 -3.52 134.88 -67.36 109.08 81.98 -91.22 -139.24 141.56 
DOCKED: USER  keepresnum = 1 
DOCKED: USER  
DOCKED: REMARK  Name = 
DOCKED: REMARK  11 active torsions:
DOCKED: REMARK  status: ('A' for Active; 'I' for Inactive)
DOCKED: REMARK    1  A    between atoms: C_2  and  O_3
DOCKED: REMARK    2  A    between atoms: O_3  and  C_4
DOCKED: REMARK    3  A    between atoms: C_4  and  C_5
DOCKED: REMARK    4  A    between atoms: C_10  and  C_11
DOCKED: REMARK    5  A    between atoms: C_11  and  N_12
DOCKED: REMARK    6  A    between atoms: N_12  and  C_13
DOCKED: REMARK    7  A    between atoms: N_12  and  C_15
DOCKED: REMARK    8  A    between atoms: C_13  and  C_14
DOCKED: REMARK    9  A    between atoms: C_15  and  C_16
DOCKED: REMARK   10  A    between atoms: N_21  and  C_22
DOCKED: REMARK   11  A    between atoms: C_25  and  C_26
DOCKED: REMARK                            x       y       z     vdW  Elec       q    Type
DOCKED: REMARK                         _______ _______ _______ _____ _____    ______ ____
DOCKED: USER                              x       y       z     vdW  Elec       q    Type
DOCKED: USER                           _______ _______ _______ _____ _____    ______ ____
DOCKED: ROOT
DOCKED: ATOM      1  C   UNL     1      13.682  -3.351   4.538 -0.35 -0.00    +0.000 C 
DOCKED: ENDROOT
DOCKED: BRANCH   1   2
DOCKED: ATOM      2  C   UNL     1      13.945  -4.688   3.905 -0.24 +0.00    +0.000 A 
DOCKED: ATOM      3  C   UNL     1      13.917  -4.835   2.510 -0.18 -0.00    +0.000 A 
DOCKED: ATOM      4  C   UNL     1      14.144  -6.085   1.926 -0.19 +0.00    +0.000 A 
DOCKED: ATOM      5  C   UNL     1      14.388  -7.207   2.731 -0.23 +0.00    +0.000 A 
DOCKED: ATOM      6  C   UNL     1      14.608  -8.467   2.154 -0.25 +0.00    +0.000 A 
DOCKED: ATOM      7  C   UNL     1      14.818  -9.595   2.965 -0.32 +0.00    +0.000 A 
DOCKED: ATOM      8  C   UNL     1      14.849  -9.444   4.360 -0.37 +0.00    +0.000 A 
DOCKED: ATOM      9  C   UNL     1      14.638  -8.191   4.944 -0.33 +0.00    +0.000 A 
DOCKED: ATOM     10  C   UNL     1      14.403  -7.068   4.139 -0.30 +0.00    +0.000 A 
DOCKED: ATOM     11  C   UNL     1      14.182  -5.808   4.716 -0.32 +0.00    +0.000 A 
DOCKED: BRANCH   7  12
DOCKED: ATOM     12  C   UNL     1      15.065 -10.943   2.337 -0.45 +0.00    +0.000 C 
DOCKED: BRANCH  12  13
DOCKED: ATOM     13  N   UNL     1      16.248 -10.906   1.449 -0.34 +0.00    +0.000 N 
DOCKED: ATOM     14  H   UNL     1      16.319  -9.911   1.229 -0.01 +0.00    +0.000 HD
DOCKED: BRANCH  13  15
DOCKED: ATOM     15  C   UNL     1      17.524 -11.230   2.122 -0.48 +0.00    +0.000 C 
DOCKED: ATOM     16  C   UNL     1      18.344  -9.998   2.513 -0.54 -0.00    +0.000 C 
DOCKED: ENDBRANCH  13  15
DOCKED: BRANCH  13  17
DOCKED: ATOM     17  C   UNL     1      16.086 -11.485   0.091 -0.41 +0.00    +0.000 C 
DOCKED: ATOM     18  C   UNL     1      15.363 -12.838   0.049 -0.55 +0.00    +0.000 C 
DOCKED: ENDBRANCH  13  17
DOCKED: ENDBRANCH  12  13
DOCKED: ENDBRANCH   7  12
DOCKED: ENDBRANCH   1   2
DOCKED: BRANCH   1  19
DOCKED: ATOM     19  O   UNL     1      14.888  -2.858   5.110 -0.44 -0.00    +0.000 OA
DOCKED: BRANCH  19  21
DOCKED: ATOM     20  O   UNL     1      16.842  -4.032   4.752 -0.41 -0.00    +0.000 OA
DOCKED: ATOM     21  C   UNL     1      16.136  -3.016   4.500 -0.53 -0.00    +0.000 C 
DOCKED: ATOM     22  N   UNL     1      16.618  -1.988   3.625 -0.44 -0.00    +0.000 N 
DOCKED: ATOM     23  H   UNL     1      16.088  -1.161   3.551 -0.55 -0.00    +0.000 HD
DOCKED: BRANCH  22  24
DOCKED: ATOM     24  C   UNL     1      17.823  -2.084   2.847 -0.43 -0.00    +0.000 A 
DOCKED: ATOM     25  C   UNL     1      19.057  -2.201   3.501 -0.50 -0.00    +0.000 A 
DOCKED: ATOM     26  C   UNL     1      20.246  -2.270   2.771 -0.62 -0.00    +0.000 A 
DOCKED: ATOM     27  C   UNL     1      20.225  -2.201   1.365 -0.44 -0.00    +0.000 A 
DOCKED: ATOM     28  C   UNL     1      18.986  -2.077   0.711 -0.28 -0.00    +0.000 A 
DOCKED: ATOM     29  C   UNL     1      17.798  -2.009   1.444 -0.28 -0.00    +0.000 A 
DOCKED: BRANCH  27  30
DOCKED: ATOM     30  C   UNL     1      21.478  -2.270   0.571 -0.43 -0.00    +0.000 C 
DOCKED: ATOM     31  N   UNL     1      21.764  -3.387  -0.277 -0.32 +0.00    +0.000 N 
DOCKED: ATOM     32  O   UNL     1      22.861  -3.377  -1.068 -0.88 +0.00    +0.000 OA
DOCKED: ATOM     33  O   UNL     1      22.318  -1.332   0.653 -0.39 -0.00    +0.000 OA
DOCKED: ATOM     34  H   UNL     1      21.160  -4.164  -0.285 -0.05 +0.00    +0.000 HD
DOCKED: ENDBRANCH  27  30
DOCKED: ENDBRANCH  22  24
DOCKED: ENDBRANCH  19  21
DOCKED: ENDBRANCH   1  19
DOCKED: TORSDOF 9
DOCKED: TER
DOCKED: ENDMDL
________________________________________________________________________________


	BEGINNING GENETIC ALGORITHM DOCKING 80 of 100
Run: 80 Seed: 36396754 1749573501 [ Run 80 of 100 GA/GALS ]
Beginning LAMARCKIAN GENETIC ALGORITHM (LGA), with a maximum of 2500000 energy evaluations.

Final-Value: -14.446


	FINAL GENETIC ALGORITHM DOCKED STATE
	_______________________________________________


Detailed state:  trans 15.580 -5.809 5.366 quatxyzw 0.489791 -0.478125 0.728993 -0.008383 center 1.619 0.086 0.013 ntor 9 -109.3103 72.5324 84.8132 -34.6867 -110.7207 -91.9890 71.6078 152.2910 2.5046
State:	 15.580  -5.809   5.366   0.490 -0.478  0.729 -179.039   -109.31   72.53   84.81  -34.69 -110.72  -91.99   71.61  152.29    2.50

DOCKED: MODEL       80
DOCKED: USER    Run = 80
DOCKED: USER    DPF = ligand_dock.biased.dpf
DOCKED: USER  
DOCKED: USER    Estimated Free Energy of Binding    =  -10.08 kcal/mol  [=(1)+(2)+(3)-(4)]
DOCKED: USER    Estimated Inhibition Constant, Ki   =   40.57 nM (nanomolar)  [Temperature = 298.15 K]
DOCKED: USER    
DOCKED: USER    (1) Final Intermolecular Energy     =  -12.77 kcal/mol
DOCKED: USER        vdW + Hbond + desolv Energy     =  -12.77 kcal/mol
DOCKED: USER        Electrostatic Energy            =   +0.00 kcal/mol
DOCKED: USER    (2) Final Total Internal Energy     =   -1.68 kcal/mol
DOCKED: USER    (3) Torsional Free Energy           =   +2.68 kcal/mol
DOCKED: USER    (4) Unbound System's Energy  [=(2)] =   -1.68 kcal/mol
DOCKED: USER    
DOCKED: USER    
DOCKED: USER    NEWDPF move ligand.pdbqt
DOCKED: USER    NEWDPF about 1.619000 0.086000 0.013000
DOCKED: USER    NEWDPF tran0 15.579529 -5.809152 5.365704
DOCKED: USER    NEWDPF quaternion0 0.489791 -0.478125 0.728993 -0.008383
DOCKED: USER    NEWDPF axisangle0 0.489809 -0.478142 0.729018 -179.039366
DOCKED: USER    NEWDPF quat0 0.489809 -0.478142 0.729018 -179.039366
DOCKED: USER    NEWDPF dihe0 -109.31 72.53 84.81 -34.69 -110.72 -91.99 71.61 152.29 2.50 
DOCKED: USER  keepresnum = 1 
DOCKED: USER  
DOCKED: REMARK  Name = 
DOCKED: REMARK  11 active torsions:
DOCKED: REMARK  status: ('A' for Active; 'I' for Inactive)
DOCKED: REMARK    1  A    between atoms: C_2  and  O_3
DOCKED: REMARK    2  A    between atoms: O_3  and  C_4
DOCKED: REMARK    3  A    between atoms: C_4  and  C_5
DOCKED: REMARK    4  A    between atoms: C_10  and  C_11
DOCKED: REMARK    5  A    between atoms: C_11  and  N_12
DOCKED: REMARK    6  A    between atoms: N_12  and  C_13
DOCKED: REMARK    7  A    between atoms: N_12  and  C_15
DOCKED: REMARK    8  A    between atoms: C_13  and  C_14
DOCKED: REMARK    9  A    between atoms: C_15  and  C_16
DOCKED: REMARK   10  A    between atoms: N_21  and  C_22
DOCKED: REMARK   11  A    between atoms: C_25  and  C_26
DOCKED: REMARK                            x       y       z     vdW  Elec       q    Type
DOCKED: REMARK                         _______ _______ _______ _____ _____    ______ ____
DOCKED: USER                              x       y       z     vdW  Elec       q    Type
DOCKED: USER                           _______ _______ _______ _____ _____    ______ ____
DOCKED: ROOT
DOCKED: ATOM      1  C   UNL     1      13.894  -4.141   5.701 -0.24 +0.00    +0.000 C 
DOCKED: ENDROOT
DOCKED: BRANCH   1   2
DOCKED: ATOM      2  C   UNL     1      14.757  -3.639   4.580 -0.37 -0.00    +0.000 A 
DOCKED: ATOM      3  C   UNL     1      14.231  -3.478   3.290 -0.26 -0.00    +0.000 A 
DOCKED: ATOM      4  C   UNL     1      15.043  -3.027   2.244 -0.26 -0.00    +0.000 A 
DOCKED: ATOM      5  C   UNL     1      16.397  -2.745   2.474 -0.32 -0.00    +0.000 A 
DOCKED: ATOM      6  C   UNL     1      17.223  -2.301   1.430 -0.18 -0.00    +0.000 A 
DOCKED: ATOM      7  C   UNL     1      18.586  -2.054   1.656 -0.35 -0.00    +0.000 A 
DOCKED: ATOM      8  C   UNL     1      19.111  -2.212   2.949 -0.50 -0.00    +0.000 A 
DOCKED: ATOM      9  C   UNL     1      18.294  -2.646   3.997 -0.23 -0.00    +0.000 A 
DOCKED: ATOM     10  C   UNL     1      16.938  -2.920   3.770 -0.44 -0.00    +0.000 A 
DOCKED: ATOM     11  C   UNL     1      16.114  -3.364   4.815 -0.48 -0.00    +0.000 A 
DOCKED: BRANCH   7  12
DOCKED: ATOM     12  C   UNL     1      19.464  -1.566   0.531 -0.28 -0.00    +0.000 C 
DOCKED: BRANCH  12  13
DOCKED: ATOM     13  N   UNL     1      20.893  -1.783   0.842 -0.36 -0.00    +0.000 N 
DOCKED: ATOM     14  H   UNL     1      20.845  -2.373   1.673 -0.03 -0.00    +0.000 HD
DOCKED: BRANCH  13  15
DOCKED: ATOM     15  C   UNL     1      21.615  -2.604  -0.154 -0.40 +0.00    +0.000 C 
DOCKED: ATOM     16  C   UNL     1      20.778  -3.745  -0.735 -0.45 +0.00    +0.000 C 
DOCKED: ENDBRANCH  13  15
DOCKED: BRANCH  13  17
DOCKED: ATOM     17  C   UNL     1      21.650  -0.617   1.366 -0.34 -0.00    +0.000 C 
DOCKED: ATOM     18  C   UNL     1      20.819   0.371   2.196 -0.39 -0.00    +0.000 C 
DOCKED: ENDBRANCH  13  17
DOCKED: ENDBRANCH  12  13
DOCKED: ENDBRANCH   7  12
DOCKED: ENDBRANCH   1   2
DOCKED: BRANCH   1  19
DOCKED: ATOM     19  O   UNL     1      14.312  -5.452   6.065 -0.94 +0.00    +0.000 OA
DOCKED: BRANCH  19  21
DOCKED: ATOM     20  O   UNL     1      16.067  -6.156   4.743 -0.50 +0.00    +0.000 OA
DOCKED: ATOM     21  C   UNL     1      14.888  -6.342   5.154 -0.47 +0.00    +0.000 C 
DOCKED: ATOM     22  N   UNL     1      14.106  -7.439   4.662 -0.32 +0.00    +0.000 N 
DOCKED: ATOM     23  H   UNL     1      13.155  -7.477   4.918 -0.00 +0.00    +0.000 HD
DOCKED: BRANCH  22  24
DOCKED: ATOM     24  C   UNL     1      14.616  -8.487   3.821 -0.32 +0.00    +0.000 A 
DOCKED: ATOM     25  C   UNL     1      14.505  -9.820   4.239 -0.39 +0.00    +0.000 A 
DOCKED: ATOM     26  C   UNL     1      15.016 -10.857   3.454 -0.44 +0.00    +0.000 A 
DOCKED: ATOM     27  C   UNL     1      15.671 -10.577   2.240 -0.36 +0.00    +0.000 A 
DOCKED: ATOM     28  C   UNL     1      15.788  -9.237   1.826 -0.27 +0.00    +0.000 A 
DOCKED: ATOM     29  C   UNL     1      15.275  -8.202   2.613 -0.26 +0.00    +0.000 A 
DOCKED: BRANCH  27  30
DOCKED: ATOM     30  C   UNL     1      16.223 -11.664   1.393 -0.46 +0.00    +0.000 C 
DOCKED: ATOM     31  N   UNL     1      15.377 -12.663   0.814 -0.47 +0.00    +0.000 N 
DOCKED: ATOM     32  O   UNL     1      15.891 -13.581  -0.036 -1.13 +0.00    +0.000 OA
DOCKED: ATOM     33  O   UNL     1      17.467 -11.720   1.186 -0.52 +0.00    +0.000 OA
DOCKED: ATOM     34  H   UNL     1      14.418 -12.683   1.037 -0.05 +0.00    +0.000 HD
DOCKED: ENDBRANCH  27  30
DOCKED: ENDBRANCH  22  24
DOCKED: ENDBRANCH  19  21
DOCKED: ENDBRANCH   1  19
DOCKED: TORSDOF 9
DOCKED: TER
DOCKED: ENDMDL
________________________________________________________________________________


	BEGINNING GENETIC ALGORITHM DOCKING 81 of 100
Run: 81 Seed: 1000729707 1764601789 [ Run 81 of 100 GA/GALS ]
Beginning LAMARCKIAN GENETIC ALGORITHM (LGA), with a maximum of 2500000 energy evaluations.

Final-Value: -14.798


	FINAL GENETIC ALGORITHM DOCKED STATE
	_______________________________________________


Detailed state:  trans 18.392 -10.302 2.799 quatxyzw 0.214457 0.608575 0.267105 0.715751 center 1.619 0.086 0.013 ntor 9 -105.8846 171.6549 39.4350 -11.6525 -39.2569 -96.7579 -86.8879 -145.6179 167.2618
State:	 18.392 -10.302   2.799   0.307  0.871  0.382 88.590   -105.88  171.65   39.43  -11.65  -39.26  -96.76  -86.89 -145.62  167.26

DOCKED: MODEL       81
DOCKED: USER    Run = 81
DOCKED: USER    DPF = ligand_dock.biased.dpf
DOCKED: USER  
DOCKED: USER    Estimated Free Energy of Binding    =  -10.24 kcal/mol  [=(1)+(2)+(3)-(4)]
DOCKED: USER    Estimated Inhibition Constant, Ki   =   31.15 nM (nanomolar)  [Temperature = 298.15 K]
DOCKED: USER    
DOCKED: USER    (1) Final Intermolecular Energy     =  -12.93 kcal/mol
DOCKED: USER        vdW + Hbond + desolv Energy     =  -12.93 kcal/mol
DOCKED: USER        Electrostatic Energy            =   +0.00 kcal/mol
DOCKED: USER    (2) Final Total Internal Energy     =   -1.87 kcal/mol
DOCKED: USER    (3) Torsional Free Energy           =   +2.68 kcal/mol
DOCKED: USER    (4) Unbound System's Energy  [=(2)] =   -1.87 kcal/mol
DOCKED: USER    
DOCKED: USER    
DOCKED: USER    NEWDPF move ligand.pdbqt
DOCKED: USER    NEWDPF about 1.619000 0.086000 0.013000
DOCKED: USER    NEWDPF tran0 18.392159 -10.301818 2.799254
DOCKED: USER    NEWDPF quaternion0 0.214457 0.608575 0.267105 0.715751
DOCKED: USER    NEWDPF axisangle0 0.307089 0.871440 0.382477 88.590418
DOCKED: USER    NEWDPF quat0 0.307089 0.871440 0.382477 88.590418
DOCKED: USER    NEWDPF dihe0 -105.88 171.65 39.43 -11.65 -39.26 -96.76 -86.89 -145.62 167.26 
DOCKED: USER  keepresnum = 1 
DOCKED: USER  
DOCKED: REMARK  Name = 
DOCKED: REMARK  11 active torsions:
DOCKED: REMARK  status: ('A' for Active; 'I' for Inactive)
DOCKED: REMARK    1  A    between atoms: C_2  and  O_3
DOCKED: REMARK    2  A    between atoms: O_3  and  C_4
DOCKED: REMARK    3  A    between atoms: C_4  and  C_5
DOCKED: REMARK    4  A    between atoms: C_10  and  C_11
DOCKED: REMARK    5  A    between atoms: C_11  and  N_12
DOCKED: REMARK    6  A    between atoms: N_12  and  C_13
DOCKED: REMARK    7  A    between atoms: N_12  and  C_15
DOCKED: REMARK    8  A    between atoms: C_13  and  C_14
DOCKED: REMARK    9  A    between atoms: C_15  and  C_16
DOCKED: REMARK   10  A    between atoms: N_21  and  C_22
DOCKED: REMARK   11  A    between atoms: C_25  and  C_26
DOCKED: REMARK                            x       y       z     vdW  Elec       q    Type
DOCKED: REMARK                         _______ _______ _______ _____ _____    ______ ____
DOCKED: USER                              x       y       z     vdW  Elec       q    Type
DOCKED: USER                           _______ _______ _______ _____ _____    ______ ____
DOCKED: ROOT
DOCKED: ATOM      1  C   UNL     1      19.999 -12.078   2.754 -0.70 -0.00    +0.000 C 
DOCKED: ENDROOT
DOCKED: BRANCH   1   2
DOCKED: ATOM      2  C   UNL     1      19.740 -11.715   1.319 -0.64 -0.00    +0.000 A 
DOCKED: ATOM      3  C   UNL     1      18.597 -12.188   0.658 -0.49 -0.00    +0.000 A 
DOCKED: ATOM      4  C   UNL     1      18.369 -11.862  -0.683 -0.40 -0.00    +0.000 A 
DOCKED: ATOM      5  C   UNL     1      19.291 -11.071  -1.383 -0.38 -0.00    +0.000 A 
DOCKED: ATOM      6  C   UNL     1      19.076 -10.747  -2.732 -0.35 -0.00    +0.000 A 
DOCKED: ATOM      7  C   UNL     1      20.018  -9.984  -3.440 -0.37 -0.00    +0.000 A 
DOCKED: ATOM      8  C   UNL     1      21.160  -9.509  -2.775 -0.46 -0.00    +0.000 A 
DOCKED: ATOM      9  C   UNL     1      21.379  -9.820  -1.430 -0.56 -0.00    +0.000 A 
DOCKED: ATOM     10  C   UNL     1      20.454 -10.604  -0.726 -0.54 -0.00    +0.000 A 
DOCKED: ATOM     11  C   UNL     1      20.670 -10.928   0.622 -0.63 -0.00    +0.000 A 
DOCKED: BRANCH   7  12
DOCKED: ATOM     12  C   UNL     1      19.774  -9.631  -4.885 -0.28 -0.00    +0.000 C 
DOCKED: BRANCH  12  13
DOCKED: ATOM     13  N   UNL     1      20.337 -10.661  -5.785 -0.33 -0.00    +0.000 N 
DOCKED: ATOM     14  H   UNL     1      20.207 -11.515  -5.241 -0.06 -0.00    +0.000 HD
DOCKED: BRANCH  13  15
DOCKED: ATOM     15  C   UNL     1      19.555 -10.885  -7.019 -0.31 -0.00    +0.000 C 
DOCKED: ATOM     16  C   UNL     1      18.046 -10.712  -6.832 -0.33 -0.00    +0.000 C 
DOCKED: ENDBRANCH  13  15
DOCKED: BRANCH  13  17
DOCKED: ATOM     17  C   UNL     1      21.812 -10.662  -5.963 -0.44 -0.00    +0.000 C 
DOCKED: ATOM     18  C   UNL     1      22.484 -12.029  -5.773 -0.55 -0.00    +0.000 C 
DOCKED: ENDBRANCH  13  17
DOCKED: ENDBRANCH  12  13
DOCKED: ENDBRANCH   7  12
DOCKED: ENDBRANCH   1   2
DOCKED: BRANCH   1  19
DOCKED: ATOM     19  O   UNL     1      19.301 -11.171   3.600 -0.82 -0.00    +0.000 OA
DOCKED: BRANCH  19  21
DOCKED: ATOM     20  O   UNL     1      18.050  -9.536   2.559 -0.56 -0.00    +0.000 OA
DOCKED: ATOM     21  C   UNL     1      18.078 -10.594   3.246 -0.38 +0.00    +0.000 C 
DOCKED: ATOM     22  N   UNL     1      16.863 -11.195   3.715 -0.41 +0.00    +0.000 N 
DOCKED: ATOM     23  H   UNL     1      16.936 -11.948   4.346 -0.14 +0.00    +0.000 HD
DOCKED: BRANCH  22  24
DOCKED: ATOM     24  C   UNL     1      15.546 -10.772   3.326 -0.46 +0.00    +0.000 A 
DOCKED: ATOM     25  C   UNL     1      14.707 -11.669   2.648 -0.44 +0.00    +0.000 A 
DOCKED: ATOM     26  C   UNL     1      13.432 -11.277   2.234 -0.34 +0.00    +0.000 A 
DOCKED: ATOM     27  C   UNL     1      12.977  -9.966   2.471 -0.22 +0.00    +0.000 A 
DOCKED: ATOM     28  C   UNL     1      13.822  -9.066   3.144 -0.24 +0.00    +0.000 A 
DOCKED: ATOM     29  C   UNL     1      15.097  -9.461   3.558 -0.36 +0.00    +0.000 A 
DOCKED: BRANCH  27  30
DOCKED: ATOM     30  C   UNL     1      11.626  -9.529   2.036 -0.19 +0.00    +0.000 C 
DOCKED: ATOM     31  N   UNL     1      10.607 -10.476   1.696 -0.23 +0.00    +0.000 N 
DOCKED: ATOM     32  O   UNL     1       9.356 -10.054   1.404 -0.19 +0.00    +0.000 OA
DOCKED: ATOM     33  O   UNL     1      11.370  -8.297   1.950 -0.11 +0.00    +0.000 OA
DOCKED: ATOM     34  H   UNL     1      10.819 -11.437   1.675 -0.03 +0.00    +0.000 HD
DOCKED: ENDBRANCH  27  30
DOCKED: ENDBRANCH  22  24
DOCKED: ENDBRANCH  19  21
DOCKED: ENDBRANCH   1  19
DOCKED: TORSDOF 9
DOCKED: TER
DOCKED: ENDMDL
________________________________________________________________________________


	BEGINNING GENETIC ALGORITHM DOCKING 82 of 100
Run: 82 Seed: 1627538397 1251423122 [ Run 82 of 100 GA/GALS ]
Beginning LAMARCKIAN GENETIC ALGORITHM (LGA), with a maximum of 2500000 energy evaluations.

Final-Value: -14.773


	FINAL GENETIC ALGORITHM DOCKED STATE
	_______________________________________________


Detailed state:  trans 13.918 -10.618 1.048 quatxyzw 0.020403 0.891675 0.333416 0.305505 center 1.619 0.086 0.013 ntor 9 97.0286 82.2482 6.5149 -61.3325 94.3570 85.6734 146.3101 120.1963 -163.0782
State:	 13.918 -10.618   1.048   0.021  0.936  0.350 144.423     97.03   82.25    6.51  -61.33   94.36   85.67  146.31  120.20 -163.08

DOCKED: MODEL       82
DOCKED: USER    Run = 82
DOCKED: USER    DPF = ligand_dock.biased.dpf
DOCKED: USER  
DOCKED: USER    Estimated Free Energy of Binding    =  -10.23 kcal/mol  [=(1)+(2)+(3)-(4)]
DOCKED: USER    Estimated Inhibition Constant, Ki   =   31.72 nM (nanomolar)  [Temperature = 298.15 K]
DOCKED: USER    
DOCKED: USER    (1) Final Intermolecular Energy     =  -12.91 kcal/mol
DOCKED: USER        vdW + Hbond + desolv Energy     =  -12.91 kcal/mol
DOCKED: USER        Electrostatic Energy            =   +0.00 kcal/mol
DOCKED: USER    (2) Final Total Internal Energy     =   -1.86 kcal/mol
DOCKED: USER    (3) Torsional Free Energy           =   +2.68 kcal/mol
DOCKED: USER    (4) Unbound System's Energy  [=(2)] =   -1.86 kcal/mol
DOCKED: USER    
DOCKED: USER    
DOCKED: USER    NEWDPF move ligand.pdbqt
DOCKED: USER    NEWDPF about 1.619000 0.086000 0.013000
DOCKED: USER    NEWDPF tran0 13.917778 -10.617649 1.048233
DOCKED: USER    NEWDPF quaternion0 0.020403 0.891675 0.333416 0.305505
DOCKED: USER    NEWDPF axisangle0 0.021427 0.936446 0.350157 144.422860
DOCKED: USER    NEWDPF quat0 0.021427 0.936446 0.350157 144.422860
DOCKED: USER    NEWDPF dihe0 97.03 82.25 6.51 -61.33 94.36 85.67 146.31 120.20 -163.08 
DOCKED: USER  keepresnum = 1 
DOCKED: USER  
DOCKED: REMARK  Name = 
DOCKED: REMARK  11 active torsions:
DOCKED: REMARK  status: ('A' for Active; 'I' for Inactive)
DOCKED: REMARK    1  A    between atoms: C_2  and  O_3
DOCKED: REMARK    2  A    between atoms: O_3  and  C_4
DOCKED: REMARK    3  A    between atoms: C_4  and  C_5
DOCKED: REMARK    4  A    between atoms: C_10  and  C_11
DOCKED: REMARK    5  A    between atoms: C_11  and  N_12
DOCKED: REMARK    6  A    between atoms: N_12  and  C_13
DOCKED: REMARK    7  A    between atoms: N_12  and  C_15
DOCKED: REMARK    8  A    between atoms: C_13  and  C_14
DOCKED: REMARK    9  A    between atoms: C_15  and  C_16
DOCKED: REMARK   10  A    between atoms: N_21  and  C_22
DOCKED: REMARK   11  A    between atoms: C_25  and  C_26
DOCKED: REMARK                            x       y       z     vdW  Elec       q    Type
DOCKED: REMARK                         _______ _______ _______ _____ _____    ______ ____
DOCKED: USER                              x       y       z     vdW  Elec       q    Type
DOCKED: USER                           _______ _______ _______ _____ _____    ______ ____
DOCKED: ROOT
DOCKED: ATOM      1  C   UNL     1      14.795 -12.355   2.445 -0.33 +0.00    +0.000 C 
DOCKED: ENDROOT
DOCKED: BRANCH   1   2
DOCKED: ATOM      2  C   UNL     1      15.926 -11.928   1.554 -0.40 +0.00    +0.000 A 
DOCKED: ATOM      3  C   UNL     1      15.746 -11.836   0.166 -0.39 +0.00    +0.000 A 
DOCKED: ATOM      4  C   UNL     1      16.808 -11.454  -0.661 -0.32 +0.00    +0.000 A 
DOCKED: ATOM      5  C   UNL     1      18.067 -11.175  -0.111 -0.40 -0.00    +0.000 A 
DOCKED: ATOM      6  C   UNL     1      19.140 -10.801  -0.934 -0.41 -0.00    +0.000 A 
DOCKED: ATOM      7  C   UNL     1      20.408 -10.555  -0.383 -0.57 -0.00    +0.000 A 
DOCKED: ATOM      8  C   UNL     1      20.585 -10.645   1.007 -0.61 -0.00    +0.000 A 
DOCKED: ATOM      9  C   UNL     1      19.519 -11.009   1.836 -0.60 -0.00    +0.000 A 
DOCKED: ATOM     10  C   UNL     1      18.258 -11.280   1.287 -0.46 -0.00    +0.000 A 
DOCKED: ATOM     11  C   UNL     1      17.186 -11.655   2.110 -0.24 +0.00    +0.000 A 
DOCKED: BRANCH   7  12
DOCKED: ATOM     12  C   UNL     1      21.553 -10.143  -1.273 -0.57 -0.00    +0.000 C 
DOCKED: BRANCH  12  13
DOCKED: ATOM     13  N   UNL     1      21.119  -9.131  -2.261 -0.49 -0.00    +0.000 N 
DOCKED: ATOM     14  H   UNL     1      20.102  -9.216  -2.222 -0.01 -0.00    +0.000 HD
DOCKED: BRANCH  13  15
DOCKED: ATOM     15  C   UNL     1      21.389  -7.734  -1.859 -0.47 -0.00    +0.000 C 
DOCKED: ATOM     16  C   UNL     1      21.180  -6.718  -2.985 -0.40 -0.00    +0.000 C 
DOCKED: ENDBRANCH  13  15
DOCKED: BRANCH  13  17
DOCKED: ATOM     17  C   UNL     1      21.374  -9.437  -3.692 -0.45 -0.00    +0.000 C 
DOCKED: ATOM     18  C   UNL     1      21.113 -10.894  -4.096 -0.52 -0.00    +0.000 C 
DOCKED: ENDBRANCH  13  17
DOCKED: ENDBRANCH  12  13
DOCKED: ENDBRANCH   7  12
DOCKED: ENDBRANCH   1   2
DOCKED: BRANCH   1  19
DOCKED: ATOM     19  O   UNL     1      13.675 -11.506   2.221 -0.47 +0.00    +0.000 OA
DOCKED: BRANCH  19  21
DOCKED: ATOM     20  O   UNL     1      13.030  -9.343   1.744 -0.19 +0.00    +0.000 OA
DOCKED: ATOM     21  C   UNL     1      13.708 -10.129   2.461 -0.31 +0.00    +0.000 C 
DOCKED: ATOM     22  N   UNL     1      14.556  -9.625   3.502 -0.34 +0.00    +0.000 N 
DOCKED: ATOM     23  H   UNL     1      15.155 -10.261   3.956 -0.02 +0.00    +0.000 HD
DOCKED: BRANCH  22  24
DOCKED: ATOM     24  C   UNL     1      14.590  -8.252   3.926 -0.31 +0.00    +0.000 A 
DOCKED: ATOM     25  C   UNL     1      14.920  -7.253   3.000 -0.25 +0.00    +0.000 A 
DOCKED: ATOM     26  C   UNL     1      14.985  -5.913   3.391 -0.25 +0.00    +0.000 A 
DOCKED: ATOM     27  C   UNL     1      14.743  -5.548   4.728 -0.37 +0.00    +0.000 A 
DOCKED: ATOM     28  C   UNL     1      14.419  -6.552   5.658 -0.38 +0.00    +0.000 A 
DOCKED: ATOM     29  C   UNL     1      14.353  -7.892   5.263 -0.38 +0.00    +0.000 A 
DOCKED: BRANCH  27  30
DOCKED: ATOM     30  C   UNL     1      14.811  -4.130   5.164 -0.49 +0.00    +0.000 C 
DOCKED: ATOM     31  N   UNL     1      15.438  -3.128   4.356 -0.42 -0.00    +0.000 N 
DOCKED: ATOM     32  O   UNL     1      15.395  -1.829   4.728 -0.52 -0.00    +0.000 OA
DOCKED: ATOM     33  O   UNL     1      14.318  -3.798   6.278 -0.56 +0.00    +0.000 OA
DOCKED: ATOM     34  H   UNL     1      15.902  -3.387   3.527 -0.01 -0.00    +0.000 HD
DOCKED: ENDBRANCH  27  30
DOCKED: ENDBRANCH  22  24
DOCKED: ENDBRANCH  19  21
DOCKED: ENDBRANCH   1  19
DOCKED: TORSDOF 9
DOCKED: TER
DOCKED: ENDMDL
________________________________________________________________________________


	BEGINNING GENETIC ALGORITHM DOCKING 83 of 100
Run: 83 Seed: 1322393128 491886112 [ Run 83 of 100 GA/GALS ]
Beginning LAMARCKIAN GENETIC ALGORITHM (LGA), with a maximum of 2500000 energy evaluations.

Final-Value: -15.066


	FINAL GENETIC ALGORITHM DOCKED STATE
	_______________________________________________


Detailed state:  trans 19.570 -9.419 1.193 quatxyzw -0.802497 0.003739 0.041258 -0.595217 center 1.619 0.086 0.013 ntor 9 -113.6268 -74.3688 -105.1452 129.3085 144.2715 -84.7851 -103.5751 85.6505 158.2247
State:	 19.570  -9.419   1.193  -0.999  0.005  0.051 -106.944   -113.63  -74.37 -105.15  129.31  144.27  -84.79 -103.58   85.65  158.22

DOCKED: MODEL       83
DOCKED: USER    Run = 83
DOCKED: USER    DPF = ligand_dock.biased.dpf
DOCKED: USER  
DOCKED: USER    Estimated Free Energy of Binding    =  -10.47 kcal/mol  [=(1)+(2)+(3)-(4)]
DOCKED: USER    Estimated Inhibition Constant, Ki   =   21.25 nM (nanomolar)  [Temperature = 298.15 K]
DOCKED: USER    
DOCKED: USER    (1) Final Intermolecular Energy     =  -13.15 kcal/mol
DOCKED: USER        vdW + Hbond + desolv Energy     =  -13.15 kcal/mol
DOCKED: USER        Electrostatic Energy            =   +0.00 kcal/mol
DOCKED: USER    (2) Final Total Internal Energy     =   -1.91 kcal/mol
DOCKED: USER    (3) Torsional Free Energy           =   +2.68 kcal/mol
DOCKED: USER    (4) Unbound System's Energy  [=(2)] =   -1.91 kcal/mol
DOCKED: USER    
DOCKED: USER    
DOCKED: USER    NEWDPF move ligand.pdbqt
DOCKED: USER    NEWDPF about 1.619000 0.086000 0.013000
DOCKED: USER    NEWDPF tran0 19.570171 -9.418779 1.192706
DOCKED: USER    NEWDPF quaternion0 -0.802497 0.003739 0.041258 -0.595217
DOCKED: USER    NEWDPF axisangle0 -0.998670 0.004653 0.051344 -106.943832
DOCKED: USER    NEWDPF quat0 -0.998670 0.004653 0.051344 -106.943832
DOCKED: USER    NEWDPF dihe0 -113.63 -74.37 -105.15 129.31 144.27 -84.79 -103.58 85.65 158.22 
DOCKED: USER  keepresnum = 1 
DOCKED: USER  
DOCKED: REMARK  Name = 
DOCKED: REMARK  11 active torsions:
DOCKED: REMARK  status: ('A' for Active; 'I' for Inactive)
DOCKED: REMARK    1  A    between atoms: C_2  and  O_3
DOCKED: REMARK    2  A    between atoms: O_3  and  C_4
DOCKED: REMARK    3  A    between atoms: C_4  and  C_5
DOCKED: REMARK    4  A    between atoms: C_10  and  C_11
DOCKED: REMARK    5  A    between atoms: C_11  and  N_12
DOCKED: REMARK    6  A    between atoms: N_12  and  C_13
DOCKED: REMARK    7  A    between atoms: N_12  and  C_15
DOCKED: REMARK    8  A    between atoms: C_13  and  C_14
DOCKED: REMARK    9  A    between atoms: C_15  and  C_16
DOCKED: REMARK   10  A    between atoms: N_21  and  C_22
DOCKED: REMARK   11  A    between atoms: C_25  and  C_26
DOCKED: REMARK                            x       y       z     vdW  Elec       q    Type
DOCKED: REMARK                         _______ _______ _______ _____ _____    ______ ____
DOCKED: USER                              x       y       z     vdW  Elec       q    Type
DOCKED: USER                           _______ _______ _______ _____ _____    ______ ____
DOCKED: ROOT
DOCKED: ATOM      1  C   UNL     1      20.090 -11.550   2.154 -0.77 -0.00    +0.000 C 
DOCKED: ENDROOT
DOCKED: BRANCH   1   2
DOCKED: ATOM      2  C   UNL     1      18.591 -11.462   2.125 -0.49 -0.00    +0.000 A 
DOCKED: ATOM      3  C   UNL     1      17.887 -10.899   3.200 -0.39 +0.00    +0.000 A 
DOCKED: ATOM      4  C   UNL     1      16.490 -10.836   3.176 -0.45 +0.00    +0.000 A 
DOCKED: ATOM      5  C   UNL     1      15.779 -11.349   2.082 -0.41 +0.00    +0.000 A 
DOCKED: ATOM      6  C   UNL     1      14.377 -11.298   2.054 -0.40 +0.00    +0.000 A 
DOCKED: ATOM      7  C   UNL     1      13.667 -11.844   0.972 -0.40 +0.00    +0.000 A 
DOCKED: ATOM      8  C   UNL     1      14.373 -12.404  -0.104 -0.43 +0.00    +0.000 A 
DOCKED: ATOM      9  C   UNL     1      15.770 -12.452  -0.088 -0.47 +0.00    +0.000 A 
DOCKED: ATOM     10  C   UNL     1      16.482 -11.932   1.002 -0.42 +0.00    +0.000 A 
DOCKED: ATOM     11  C   UNL     1      17.884 -11.983   1.030 -0.48 +0.00    +0.000 A 
DOCKED: BRANCH   7  12
DOCKED: ATOM     12  C   UNL     1      12.161 -11.775   0.944 -0.41 +0.00    +0.000 C 
DOCKED: BRANCH  12  13
DOCKED: ATOM     13  N   UNL     1      11.699 -10.577   0.209 -0.26 +0.00    +0.000 N 
DOCKED: ATOM     14  H   UNL     1      10.687 -10.715   0.190 -0.01 +0.00    +0.000 HD
DOCKED: BRANCH  13  15
DOCKED: ATOM     15  C   UNL     1      11.886  -9.306   0.939 -0.15 +0.00    +0.000 C 
DOCKED: ATOM     16  C   UNL     1      11.543  -9.393   2.428 -0.18 +0.00    +0.000 C 
DOCKED: ENDBRANCH  13  15
DOCKED: BRANCH  13  17
DOCKED: ATOM     17  C   UNL     1      12.004 -10.522  -1.244 -0.24 -0.00    +0.000 C 
DOCKED: ATOM     18  C   UNL     1      12.946  -9.385  -1.662 -0.20 -0.00    +0.000 C 
DOCKED: ENDBRANCH  13  17
DOCKED: ENDBRANCH  12  13
DOCKED: ENDBRANCH   7  12
DOCKED: ENDBRANCH   1   2
DOCKED: BRANCH   1  19
DOCKED: ATOM     19  O   UNL     1      20.640 -10.410   1.503 -0.77 -0.00    +0.000 OA
DOCKED: BRANCH  19  21
DOCKED: ATOM     20  O   UNL     1      22.263 -10.504  -0.134 -0.63 -0.00    +0.000 OA
DOCKED: ATOM     21  C   UNL     1      21.039 -10.424   0.163 -0.70 -0.00    +0.000 C 
DOCKED: ATOM     22  N   UNL     1      20.043 -10.297  -0.861 -0.49 -0.00    +0.000 N 
DOCKED: ATOM     23  H   UNL     1      19.116 -10.117  -0.582 -0.01 -0.00    +0.000 HD
DOCKED: BRANCH  22  24
DOCKED: ATOM     24  C   UNL     1      20.309 -10.416  -2.269 -0.46 -0.00    +0.000 A 
DOCKED: ATOM     25  C   UNL     1      19.509 -11.262  -3.051 -0.33 -0.00    +0.000 A 
DOCKED: ATOM     26  C   UNL     1      19.761 -11.417  -4.416 -0.44 -0.00    +0.000 A 
DOCKED: ATOM     27  C   UNL     1      20.836 -10.743  -5.025 -0.42 -0.00    +0.000 A 
DOCKED: ATOM     28  C   UNL     1      21.641  -9.900  -4.237 -0.37 -0.00    +0.000 A 
DOCKED: ATOM     29  C   UNL     1      21.387  -9.747  -2.872 -0.46 -0.00    +0.000 A 
DOCKED: BRANCH  27  30
DOCKED: ATOM     30  C   UNL     1      21.121 -10.897  -6.474 -0.37 -0.00    +0.000 C 
DOCKED: ATOM     31  N   UNL     1      22.424 -11.262  -6.944 -0.41 -0.00    +0.000 N 
DOCKED: ATOM     32  O   UNL     1      22.631 -11.496  -8.260 -0.38 -0.00    +0.000 OA
DOCKED: ATOM     33  O   UNL     1      20.203 -10.689  -7.314 -0.32 -0.00    +0.000 OA
DOCKED: ATOM     34  H   UNL     1      23.170 -11.343  -6.307 -0.03 -0.00    +0.000 HD
DOCKED: ENDBRANCH  27  30
DOCKED: ENDBRANCH  22  24
DOCKED: ENDBRANCH  19  21
DOCKED: ENDBRANCH   1  19
DOCKED: TORSDOF 9
DOCKED: TER
DOCKED: ENDMDL
________________________________________________________________________________


	BEGINNING GENETIC ALGORITHM DOCKING 84 of 100
Run: 84 Seed: 1935394963 2093023837 [ Run 84 of 100 GA/GALS ]
Beginning LAMARCKIAN GENETIC ALGORITHM (LGA), with a maximum of 2500000 energy evaluations.

Final-Value: -15.778


	FINAL GENETIC ALGORITHM DOCKED STATE
	_______________________________________________


Detailed state:  trans 20.192 -6.890 -3.545 quatxyzw -0.580842 0.032590 0.567513 0.582657 center 1.619 0.086 0.013 ntor 9 178.4031 177.9869 68.9861 -58.8937 144.4137 131.8676 -19.3368 130.5936 179.8880
State:	 20.192  -6.890  -3.545  -0.715  0.040  0.698 108.725    178.40  177.99   68.99  -58.89  144.41  131.87  -19.34  130.59  179.89

DOCKED: MODEL       84
DOCKED: USER    Run = 84
DOCKED: USER    DPF = ligand_dock.biased.dpf
DOCKED: USER  
DOCKED: USER    Estimated Free Energy of Binding    =  -11.49 kcal/mol  [=(1)+(2)+(3)-(4)]
DOCKED: USER    Estimated Inhibition Constant, Ki   =    3.77 nM (nanomolar)  [Temperature = 298.15 K]
DOCKED: USER    
DOCKED: USER    (1) Final Intermolecular Energy     =  -14.18 kcal/mol
DOCKED: USER        vdW + Hbond + desolv Energy     =  -14.18 kcal/mol
DOCKED: USER        Electrostatic Energy            =   +0.00 kcal/mol
DOCKED: USER    (2) Final Total Internal Energy     =   -1.60 kcal/mol
DOCKED: USER    (3) Torsional Free Energy           =   +2.68 kcal/mol
DOCKED: USER    (4) Unbound System's Energy  [=(2)] =   -1.60 kcal/mol
DOCKED: USER    
DOCKED: USER    
DOCKED: USER    NEWDPF move ligand.pdbqt
DOCKED: USER    NEWDPF about 1.619000 0.086000 0.013000
DOCKED: USER    NEWDPF tran0 20.192486 -6.889607 -3.545489
DOCKED: USER    NEWDPF quaternion0 -0.580842 0.032590 0.567513 0.582657
DOCKED: USER    NEWDPF axisangle0 -0.714691 0.040100 0.698290 108.724769
DOCKED: USER    NEWDPF quat0 -0.714691 0.040100 0.698290 108.724769
DOCKED: USER    NEWDPF dihe0 178.40 177.99 68.99 -58.89 144.41 131.87 -19.34 130.59 179.89 
DOCKED: USER  keepresnum = 1 
DOCKED: USER  
DOCKED: REMARK  Name = 
DOCKED: REMARK  11 active torsions:
DOCKED: REMARK  status: ('A' for Active; 'I' for Inactive)
DOCKED: REMARK    1  A    between atoms: C_2  and  O_3
DOCKED: REMARK    2  A    between atoms: O_3  and  C_4
DOCKED: REMARK    3  A    between atoms: C_4  and  C_5
DOCKED: REMARK    4  A    between atoms: C_10  and  C_11
DOCKED: REMARK    5  A    between atoms: C_11  and  N_12
DOCKED: REMARK    6  A    between atoms: N_12  and  C_13
DOCKED: REMARK    7  A    between atoms: N_12  and  C_15
DOCKED: REMARK    8  A    between atoms: C_13  and  C_14
DOCKED: REMARK    9  A    between atoms: C_15  and  C_16
DOCKED: REMARK   10  A    between atoms: N_21  and  C_22
DOCKED: REMARK   11  A    between atoms: C_25  and  C_26
DOCKED: REMARK                            x       y       z     vdW  Elec       q    Type
DOCKED: REMARK                         _______ _______ _______ _____ _____    ______ ____
DOCKED: USER                              x       y       z     vdW  Elec       q    Type
DOCKED: USER                           _______ _______ _______ _____ _____    ______ ____
DOCKED: ROOT
DOCKED: ATOM      1  C   UNL     1      21.752  -5.535  -4.759 -0.17 -0.00    +0.000 C 
DOCKED: ENDROOT
DOCKED: BRANCH   1   2
DOCKED: ATOM      2  C   UNL     1      21.149  -4.640  -3.714 -0.18 -0.00    +0.000 A 
DOCKED: ATOM      3  C   UNL     1      19.794  -4.282  -3.775 -0.15 -0.00    +0.000 A 
DOCKED: ATOM      4  C   UNL     1      19.242  -3.434  -2.809 -0.14 -0.00    +0.000 A 
DOCKED: ATOM      5  C   UNL     1      20.043  -2.922  -1.779 -0.21 -0.00    +0.000 A 
DOCKED: ATOM      6  C   UNL     1      19.500  -2.062  -0.811 -0.19 -0.00    +0.000 A 
DOCKED: ATOM      7  C   UNL     1      20.312  -1.524   0.199 -0.24 -0.00    +0.000 A 
DOCKED: ATOM      8  C   UNL     1      21.668  -1.886   0.260 -0.34 -0.00    +0.000 A 
DOCKED: ATOM      9  C   UNL     1      22.216  -2.747  -0.695 -0.29 +0.00    +0.000 A 
DOCKED: ATOM     10  C   UNL     1      21.414  -3.267  -1.720 -0.26 -0.00    +0.000 A 
DOCKED: ATOM     11  C   UNL     1      21.958  -4.125  -2.688 -0.24 -0.00    +0.000 A 
DOCKED: BRANCH   7  12
DOCKED: ATOM     12  C   UNL     1      19.719  -0.610   1.242 -0.27 -0.00    +0.000 C 
DOCKED: BRANCH  12  13
DOCKED: ATOM     13  N   UNL     1      19.312  -1.371   2.443 -0.41 -0.00    +0.000 N 
DOCKED: ATOM     14  H   UNL     1      19.344  -2.335   2.108 -0.02 -0.00    +0.000 HD
DOCKED: BRANCH  13  15
DOCKED: ATOM     15  C   UNL     1      20.291  -1.331   3.550 -0.69 -0.00    +0.000 C 
DOCKED: ATOM     16  C   UNL     1      21.010  -2.662   3.785 -0.73 -0.00    +0.000 C 
DOCKED: ENDBRANCH  13  15
DOCKED: BRANCH  13  17
DOCKED: ATOM     17  C   UNL     1      17.889  -1.263   2.856 -0.42 -0.00    +0.000 C 
DOCKED: ATOM     18  C   UNL     1      17.231  -2.590   3.260 -0.50 -0.00    +0.000 C 
DOCKED: ENDBRANCH  13  17
DOCKED: ENDBRANCH  12  13
DOCKED: ENDBRANCH   7  12
DOCKED: ENDBRANCH   1   2
DOCKED: BRANCH   1  19
DOCKED: ATOM     19  O   UNL     1      21.274  -6.863  -4.571 -0.23 -0.00    +0.000 OA
DOCKED: BRANCH  19  21
DOCKED: ATOM     20  O   UNL     1      22.110  -7.108  -2.435 -0.31 -0.00    +0.000 OA
DOCKED: ATOM     21  C   UNL     1      21.332  -7.521  -3.339 -0.39 -0.00    +0.000 C 
DOCKED: ATOM     22  N   UNL     1      20.533  -8.694  -3.138 -0.36 -0.00    +0.000 N 
DOCKED: ATOM     23  H   UNL     1      20.033  -9.048  -3.910 -0.00 -0.00    +0.000 HD
DOCKED: BRANCH  22  24
DOCKED: ATOM     24  C   UNL     1      20.412  -9.389  -1.886 -0.39 -0.00    +0.000 A 
DOCKED: ATOM     25  C   UNL     1      21.306  -9.095  -0.847 -0.53 -0.00    +0.000 A 
DOCKED: ATOM     26  C   UNL     1      21.228  -9.773   0.372 -0.51 -0.00    +0.000 A 
DOCKED: ATOM     27  C   UNL     1      20.263 -10.778   0.569 -0.60 -0.00    +0.000 A 
DOCKED: ATOM     28  C   UNL     1      19.371 -11.076  -0.477 -0.46 -0.00    +0.000 A 
DOCKED: ATOM     29  C   UNL     1      19.452 -10.396  -1.695 -0.37 -0.00    +0.000 A 
DOCKED: BRANCH  27  30
DOCKED: ATOM     30  C   UNL     1      20.166 -11.512   1.856 -0.77 -0.00    +0.000 C 
DOCKED: ATOM     31  N   UNL     1      20.183 -10.824   3.112 -0.70 -0.00    +0.000 N 
DOCKED: ATOM     32  O   UNL     1      19.990 -11.505   4.264 -1.06 -0.00    +0.000 OA
DOCKED: ATOM     33  O   UNL     1      20.079 -12.770   1.849 -1.54 -0.00    +0.000 OA
DOCKED: ATOM     34  H   UNL     1      20.338  -9.852   3.136 -0.51 -0.00    +0.000 HD
DOCKED: ENDBRANCH  27  30
DOCKED: ENDBRANCH  22  24
DOCKED: ENDBRANCH  19  21
DOCKED: ENDBRANCH   1  19
DOCKED: TORSDOF 9
DOCKED: TER
DOCKED: ENDMDL
________________________________________________________________________________


	BEGINNING GENETIC ALGORITHM DOCKING 85 of 100
Run: 85 Seed: 1587986258 1036174872 [ Run 85 of 100 GA/GALS ]
Beginning LAMARCKIAN GENETIC ALGORITHM (LGA), with a maximum of 2500000 energy evaluations.

Final-Value: -14.702


	FINAL GENETIC ALGORITHM DOCKED STATE
	_______________________________________________


Detailed state:  trans 22.399 -11.692 -6.590 quatxyzw -0.042631 0.456184 -0.881013 -0.117880 center 1.619 0.086 0.013 ntor 9 -109.9501 -34.2782 -75.1695 9.9795 -23.8329 -147.7357 -136.4323 -97.4924 126.2523
State:	 22.399 -11.692  -6.590  -0.043  0.459 -0.887 -166.460   -109.95  -34.28  -75.17    9.98  -23.83 -147.74 -136.43  -97.49  126.25

DOCKED: MODEL       85
DOCKED: USER    Run = 85
DOCKED: USER    DPF = ligand_dock.biased.dpf
DOCKED: USER  
DOCKED: USER    Estimated Free Energy of Binding    =  -10.30 kcal/mol  [=(1)+(2)+(3)-(4)]
DOCKED: USER    Estimated Inhibition Constant, Ki   =   28.41 nM (nanomolar)  [Temperature = 298.15 K]
DOCKED: USER    
DOCKED: USER    (1) Final Intermolecular Energy     =  -12.98 kcal/mol
DOCKED: USER        vdW + Hbond + desolv Energy     =  -12.98 kcal/mol
DOCKED: USER        Electrostatic Energy            =   +0.00 kcal/mol
DOCKED: USER    (2) Final Total Internal Energy     =   -1.72 kcal/mol
DOCKED: USER    (3) Torsional Free Energy           =   +2.68 kcal/mol
DOCKED: USER    (4) Unbound System's Energy  [=(2)] =   -1.72 kcal/mol
DOCKED: USER    
DOCKED: USER    
DOCKED: USER    NEWDPF move ligand.pdbqt
DOCKED: USER    NEWDPF about 1.619000 0.086000 0.013000
DOCKED: USER    NEWDPF tran0 22.398822 -11.691511 -6.590162
DOCKED: USER    NEWDPF quaternion0 -0.042631 0.456184 -0.881013 -0.117880
DOCKED: USER    NEWDPF axisangle0 -0.042931 0.459387 -0.887198 -166.460469
DOCKED: USER    NEWDPF quat0 -0.042931 0.459387 -0.887198 -166.460469
DOCKED: USER    NEWDPF dihe0 -109.95 -34.28 -75.17 9.98 -23.83 -147.74 -136.43 -97.49 126.25 
DOCKED: USER  keepresnum = 1 
DOCKED: USER  
DOCKED: REMARK  Name = 
DOCKED: REMARK  11 active torsions:
DOCKED: REMARK  status: ('A' for Active; 'I' for Inactive)
DOCKED: REMARK    1  A    between atoms: C_2  and  O_3
DOCKED: REMARK    2  A    between atoms: O_3  and  C_4
DOCKED: REMARK    3  A    between atoms: C_4  and  C_5
DOCKED: REMARK    4  A    between atoms: C_10  and  C_11
DOCKED: REMARK    5  A    between atoms: C_11  and  N_12
DOCKED: REMARK    6  A    between atoms: N_12  and  C_13
DOCKED: REMARK    7  A    between atoms: N_12  and  C_15
DOCKED: REMARK    8  A    between atoms: C_13  and  C_14
DOCKED: REMARK    9  A    between atoms: C_15  and  C_16
DOCKED: REMARK   10  A    between atoms: N_21  and  C_22
DOCKED: REMARK   11  A    between atoms: C_25  and  C_26
DOCKED: REMARK                            x       y       z     vdW  Elec       q    Type
DOCKED: REMARK                         _______ _______ _______ _____ _____    ______ ____
DOCKED: USER                              x       y       z     vdW  Elec       q    Type
DOCKED: USER                           _______ _______ _______ _____ _____    ______ ____
DOCKED: ROOT
DOCKED: ATOM      1  C   UNL     1      21.569  -9.736  -7.698 -0.22 -0.00    +0.000 C 
DOCKED: ENDROOT
DOCKED: BRANCH   1   2
DOCKED: ATOM      2  C   UNL     1      23.058  -9.564  -7.611 -0.21 -0.00    +0.000 A 
DOCKED: ATOM      3  C   UNL     1      23.612  -8.463  -6.940 -0.18 -0.00    +0.000 A 
DOCKED: ATOM      4  C   UNL     1      24.999  -8.297  -6.877 -0.08 -0.00    +0.000 A 
DOCKED: ATOM      5  C   UNL     1      25.849  -9.223  -7.499 -0.29 -0.00    +0.000 A 
DOCKED: ATOM      6  C   UNL     1      27.242  -9.059  -7.449 -0.34 -0.00    +0.000 A 
DOCKED: ATOM      7  C   UNL     1      28.090  -9.968  -8.102 -0.40 -0.00    +0.000 A 
DOCKED: ATOM      8  C   UNL     1      27.534 -11.071  -8.771 -0.22 -0.00    +0.000 A 
DOCKED: ATOM      9  C   UNL     1      26.147 -11.247  -8.818 -0.36 -0.00    +0.000 A 
DOCKED: ATOM     10  C   UNL     1      25.297 -10.326  -8.190 -0.31 -0.00    +0.000 A 
DOCKED: ATOM     11  C   UNL     1      23.904 -10.490  -8.240 -0.27 -0.00    +0.000 A 
DOCKED: BRANCH   7  12
DOCKED: ATOM     12  C   UNL     1      29.585  -9.792  -8.035 -0.41 -0.00    +0.000 C 
DOCKED: BRANCH  12  13
DOCKED: ATOM     13  N   UNL     1      30.028  -8.682  -8.907 -0.16 -0.00    +0.000 N 
DOCKED: ATOM     14  H   UNL     1      29.461  -7.904  -8.568 +0.00 -0.00    +0.000 HD
DOCKED: BRANCH  13  15
DOCKED: ATOM     15  C   UNL     1      31.423  -8.250  -8.682 -0.15 -0.00    +0.000 C 
DOCKED: ATOM     16  C   UNL     1      31.844  -8.268  -7.211 -0.22 -0.00    +0.000 C 
DOCKED: ENDBRANCH  13  15
DOCKED: BRANCH  13  17
DOCKED: ATOM     17  C   UNL     1      29.607  -8.739 -10.331 -0.11 -0.00    +0.000 C 
DOCKED: ATOM     18  C   UNL     1      30.383  -9.744 -11.193 -0.20 -0.00    +0.000 C 
DOCKED: ENDBRANCH  13  17
DOCKED: ENDBRANCH  12  13
DOCKED: ENDBRANCH   7  12
DOCKED: ENDBRANCH   1   2
DOCKED: BRANCH   1  19
DOCKED: ATOM     19  O   UNL     1      21.217 -11.026  -7.209 -0.32 -0.00    +0.000 OA
DOCKED: BRANCH  19  21
DOCKED: ATOM     20  O   UNL     1      21.605 -12.375  -5.378 -0.81 -0.00    +0.000 OA
DOCKED: ATOM     21  C   UNL     1      21.105 -11.315  -5.846 -0.40 -0.00    +0.000 C 
DOCKED: ATOM     22  N   UNL     1      20.375 -10.414  -5.001 -0.34 -0.00    +0.000 N 
DOCKED: ATOM     23  H   UNL     1      19.902  -9.664  -5.429 +0.01 -0.00    +0.000 HD
DOCKED: BRANCH  22  24
DOCKED: ATOM     24  C   UNL     1      20.290 -10.533  -3.571 -0.42 -0.00    +0.000 A 
DOCKED: ATOM     25  C   UNL     1      21.440 -10.335  -2.794 -0.46 -0.00    +0.000 A 
DOCKED: ATOM     26  C   UNL     1      21.391 -10.470  -1.404 -0.56 -0.00    +0.000 A 
DOCKED: ATOM     27  C   UNL     1      20.191 -10.830  -0.764 -0.49 -0.00    +0.000 A 
DOCKED: ATOM     28  C   UNL     1      19.040 -11.036  -1.546 -0.38 -0.00    +0.000 A 
DOCKED: ATOM     29  C   UNL     1      19.092 -10.899  -2.936 -0.35 -0.00    +0.000 A 
DOCKED: BRANCH  27  30
DOCKED: ATOM     30  C   UNL     1      20.120 -10.981   0.712 -0.68 -0.00    +0.000 C 
DOCKED: ATOM     31  N   UNL     1      20.224 -12.265   1.337 -0.69 -0.00    +0.000 N 
DOCKED: ATOM     32  O   UNL     1      20.260 -12.364   2.685 -1.87 -0.00    +0.000 OA
DOCKED: ATOM     33  O   UNL     1      19.950  -9.961   1.434 -0.60 -0.00    +0.000 OA
DOCKED: ATOM     34  H   UNL     1      20.270 -13.078   0.784 -0.50 -0.00    +0.000 HD
DOCKED: ENDBRANCH  27  30
DOCKED: ENDBRANCH  22  24
DOCKED: ENDBRANCH  19  21
DOCKED: ENDBRANCH   1  19
DOCKED: TORSDOF 9
DOCKED: TER
DOCKED: ENDMDL
________________________________________________________________________________


	BEGINNING GENETIC ALGORITHM DOCKING 86 of 100
Run: 86 Seed: 74667929 1176022475 [ Run 86 of 100 GA/GALS ]
Beginning LAMARCKIAN GENETIC ALGORITHM (LGA), with a maximum of 2500000 energy evaluations.

Final-Value: -15.241


	FINAL GENETIC ALGORITHM DOCKED STATE
	_______________________________________________


Detailed state:  trans 20.218 -9.213 -4.357 quatxyzw -0.338534 -0.269377 -0.140814 0.890507 center 1.619 0.086 0.013 ntor 9 71.4930 147.4713 78.7849 9.6109 147.9591 73.3664 -94.7105 158.4527 -179.9257
State:	 20.218  -9.213  -4.357  -0.744 -0.592 -0.310 54.126     71.49  147.47   78.78    9.61  147.96   73.37  -94.71  158.45 -179.93

DOCKED: MODEL       86
DOCKED: USER    Run = 86
DOCKED: USER    DPF = ligand_dock.biased.dpf
DOCKED: USER  
DOCKED: USER    Estimated Free Energy of Binding    =   -9.98 kcal/mol  [=(1)+(2)+(3)-(4)]
DOCKED: USER    Estimated Inhibition Constant, Ki   =   48.66 nM (nanomolar)  [Temperature = 298.15 K]
DOCKED: USER    
DOCKED: USER    (1) Final Intermolecular Energy     =  -12.66 kcal/mol
DOCKED: USER        vdW + Hbond + desolv Energy     =  -12.66 kcal/mol
DOCKED: USER        Electrostatic Energy            =   +0.00 kcal/mol
DOCKED: USER    (2) Final Total Internal Energy     =   -2.58 kcal/mol
DOCKED: USER    (3) Torsional Free Energy           =   +2.68 kcal/mol
DOCKED: USER    (4) Unbound System's Energy  [=(2)] =   -2.58 kcal/mol
DOCKED: USER    
DOCKED: USER    
DOCKED: USER    NEWDPF move ligand.pdbqt
DOCKED: USER    NEWDPF about 1.619000 0.086000 0.013000
DOCKED: USER    NEWDPF tran0 20.217712 -9.213341 -4.357291
DOCKED: USER    NEWDPF quaternion0 -0.338534 -0.269377 -0.140814 0.890507
DOCKED: USER    NEWDPF axisangle0 -0.744080 -0.592075 -0.309502 54.126061
DOCKED: USER    NEWDPF quat0 -0.744080 -0.592075 -0.309502 54.126061
DOCKED: USER    NEWDPF dihe0 71.49 147.47 78.78 9.61 147.96 73.37 -94.71 158.45 -179.93 
DOCKED: USER  keepresnum = 1 
DOCKED: USER  
DOCKED: REMARK  Name = 
DOCKED: REMARK  11 active torsions:
DOCKED: REMARK  status: ('A' for Active; 'I' for Inactive)
DOCKED: REMARK    1  A    between atoms: C_2  and  O_3
DOCKED: REMARK    2  A    between atoms: O_3  and  C_4
DOCKED: REMARK    3  A    between atoms: C_4  and  C_5
DOCKED: REMARK    4  A    between atoms: C_10  and  C_11
DOCKED: REMARK    5  A    between atoms: C_11  and  N_12
DOCKED: REMARK    6  A    between atoms: N_12  and  C_13
DOCKED: REMARK    7  A    between atoms: N_12  and  C_15
DOCKED: REMARK    8  A    between atoms: C_13  and  C_14
DOCKED: REMARK    9  A    between atoms: C_15  and  C_16
DOCKED: REMARK   10  A    between atoms: N_21  and  C_22
DOCKED: REMARK   11  A    between atoms: C_25  and  C_26
DOCKED: REMARK                            x       y       z     vdW  Elec       q    Type
DOCKED: REMARK                         _______ _______ _______ _____ _____    ______ ____
DOCKED: USER                              x       y       z     vdW  Elec       q    Type
DOCKED: USER                           _______ _______ _______ _____ _____    ______ ____
DOCKED: ROOT
DOCKED: ATOM      1  C   UNL     1      19.183  -8.060  -6.184 -0.11 -0.00    +0.000 C 
DOCKED: ENDROOT
DOCKED: BRANCH   1   2
DOCKED: ATOM      2  C   UNL     1      18.070  -8.740  -5.439 -0.14 -0.00    +0.000 A 
DOCKED: ATOM      3  C   UNL     1      17.977 -10.139  -5.414 -0.23 -0.00    +0.000 A 
DOCKED: ATOM      4  C   UNL     1      16.930 -10.768  -4.734 -0.10 -0.00    +0.000 A 
DOCKED: ATOM      5  C   UNL     1      15.953 -10.003  -4.081 -0.21 -0.00    +0.000 A 
DOCKED: ATOM      6  C   UNL     1      14.893 -10.624  -3.403 -0.25 -0.00    +0.000 A 
DOCKED: ATOM      7  C   UNL     1      13.897  -9.854  -2.780 -0.21 -0.00    +0.000 A 
DOCKED: ATOM      8  C   UNL     1      13.994  -8.454  -2.803 -0.15 -0.00    +0.000 A 
DOCKED: ATOM      9  C   UNL     1      15.051  -7.826  -3.468 -0.12 -0.00    +0.000 A 
DOCKED: ATOM     10  C   UNL     1      16.032  -8.590  -4.114 -0.15 -0.00    +0.000 A 
DOCKED: ATOM     11  C   UNL     1      17.092  -7.968  -4.792 -0.12 -0.00    +0.000 A 
DOCKED: BRANCH   7  12
DOCKED: ATOM     12  C   UNL     1      12.768 -10.530  -2.045 -0.24 -0.00    +0.000 C 
DOCKED: BRANCH  12  13
DOCKED: ATOM     13  N   UNL     1      13.045 -10.597  -0.593 -0.26 +0.00    +0.000 N 
DOCKED: ATOM     14  H   UNL     1      13.225  -9.618  -0.364 +0.00 +0.00    +0.000 HD
DOCKED: BRANCH  13  15
DOCKED: ATOM     15  C   UNL     1      11.876 -10.963   0.234 -0.34 +0.00    +0.000 C 
DOCKED: ATOM     16  C   UNL     1      12.223 -11.848   1.433 -0.41 +0.00    +0.000 C 
DOCKED: ENDBRANCH  13  15
DOCKED: BRANCH  13  17
DOCKED: ATOM     17  C   UNL     1      14.328 -11.223  -0.184 -0.36 +0.00    +0.000 C 
DOCKED: ATOM     18  C   UNL     1      15.401 -10.238   0.301 -0.30 +0.00    +0.000 C 
DOCKED: ENDBRANCH  13  17
DOCKED: ENDBRANCH  12  13
DOCKED: ENDBRANCH   7  12
DOCKED: ENDBRANCH   1   2
DOCKED: BRANCH   1  19
DOCKED: ATOM     19  O   UNL     1      20.404  -8.247  -5.477 -0.17 -0.00    +0.000 OA
DOCKED: BRANCH  19  21
DOCKED: ATOM     20  O   UNL     1      20.587  -7.573  -3.278 -0.36 -0.00    +0.000 OA
DOCKED: ATOM     21  C   UNL     1      20.452  -8.516  -4.106 -0.32 -0.00    +0.000 C 
DOCKED: ATOM     22  N   UNL     1      20.392  -9.878  -3.662 -0.37 -0.00    +0.000 N 
DOCKED: ATOM     23  H   UNL     1      20.407 -10.586  -4.346 -0.01 -0.00    +0.000 HD
DOCKED: BRANCH  22  24
DOCKED: ATOM     24  C   UNL     1      20.311 -10.279  -2.284 -0.46 -0.00    +0.000 A 
DOCKED: ATOM     25  C   UNL     1      21.435 -10.134  -1.458 -0.54 -0.00    +0.000 A 
DOCKED: ATOM     26  C   UNL     1      21.393 -10.539  -0.121 -0.62 -0.00    +0.000 A 
DOCKED: ATOM     27  C   UNL     1      20.228 -11.121   0.411 -0.59 -0.00    +0.000 A 
DOCKED: ATOM     28  C   UNL     1      19.104 -11.272  -0.421 -0.46 -0.00    +0.000 A 
DOCKED: ATOM     29  C   UNL     1      19.149 -10.865  -1.757 -0.39 -0.00    +0.000 A 
DOCKED: BRANCH  27  30
DOCKED: ATOM     30  C   UNL     1      20.163 -11.561   1.828 -0.77 -0.00    +0.000 C 
DOCKED: ATOM     31  N   UNL     1      20.431 -10.655   2.904 -0.66 -0.00    +0.000 N 
DOCKED: ATOM     32  O   UNL     1      20.265 -11.054   4.186 -1.07 -0.00    +0.000 OA
DOCKED: ATOM     33  O   UNL     1      19.881 -12.761   2.094 -1.59 -0.00    +0.000 OA
DOCKED: ATOM     34  H   UNL     1      20.737  -9.740   2.710 -0.58 -0.00    +0.000 HD
DOCKED: ENDBRANCH  27  30
DOCKED: ENDBRANCH  22  24
DOCKED: ENDBRANCH  19  21
DOCKED: ENDBRANCH   1  19
DOCKED: TORSDOF 9
DOCKED: TER
DOCKED: ENDMDL
________________________________________________________________________________


	BEGINNING GENETIC ALGORITHM DOCKING 87 of 100
Run: 87 Seed: 1506548936 217253029 [ Run 87 of 100 GA/GALS ]
Beginning LAMARCKIAN GENETIC ALGORITHM (LGA), with a maximum of 2500000 energy evaluations.

Final-Value: -13.769


	FINAL GENETIC ALGORITHM DOCKED STATE
	_______________________________________________


Detailed state:  trans 15.374 -3.104 2.582 quatxyzw 0.672364 0.723835 0.131648 -0.081595 center 1.619 0.086 0.013 ntor 9 -175.4438 -13.5736 -0.2728 -51.6625 -37.1723 -0.2635 51.9542 143.3889 1.1856
State:	 15.374  -3.104   2.582   0.675  0.726  0.132 -170.640   -175.44  -13.57   -0.27  -51.66  -37.17   -0.26   51.95  143.39    1.19

DOCKED: MODEL       87
DOCKED: USER    Run = 87
DOCKED: USER    DPF = ligand_dock.biased.dpf
DOCKED: USER  
DOCKED: USER    Estimated Free Energy of Binding    =   -9.51 kcal/mol  [=(1)+(2)+(3)-(4)]
DOCKED: USER    Estimated Inhibition Constant, Ki   =  106.31 nM (nanomolar)  [Temperature = 298.15 K]
DOCKED: USER    
DOCKED: USER    (1) Final Intermolecular Energy     =  -12.20 kcal/mol
DOCKED: USER        vdW + Hbond + desolv Energy     =  -12.20 kcal/mol
DOCKED: USER        Electrostatic Energy            =   +0.00 kcal/mol
DOCKED: USER    (2) Final Total Internal Energy     =   -1.57 kcal/mol
DOCKED: USER    (3) Torsional Free Energy           =   +2.68 kcal/mol
DOCKED: USER    (4) Unbound System's Energy  [=(2)] =   -1.57 kcal/mol
DOCKED: USER    
DOCKED: USER    
DOCKED: USER    NEWDPF move ligand.pdbqt
DOCKED: USER    NEWDPF about 1.619000 0.086000 0.013000
DOCKED: USER    NEWDPF tran0 15.373718 -3.103798 2.581897
DOCKED: USER    NEWDPF quaternion0 0.672364 0.723835 0.131648 -0.081595
DOCKED: USER    NEWDPF axisangle0 0.674614 0.726257 0.132089 -170.639546
DOCKED: USER    NEWDPF quat0 0.674614 0.726257 0.132089 -170.639546
DOCKED: USER    NEWDPF dihe0 -175.44 -13.57 -0.27 -51.66 -37.17 -0.26 51.95 143.39 1.19 
DOCKED: USER  keepresnum = 1 
DOCKED: USER  
DOCKED: REMARK  Name = 
DOCKED: REMARK  11 active torsions:
DOCKED: REMARK  status: ('A' for Active; 'I' for Inactive)
DOCKED: REMARK    1  A    between atoms: C_2  and  O_3
DOCKED: REMARK    2  A    between atoms: O_3  and  C_4
DOCKED: REMARK    3  A    between atoms: C_4  and  C_5
DOCKED: REMARK    4  A    between atoms: C_10  and  C_11
DOCKED: REMARK    5  A    between atoms: C_11  and  N_12
DOCKED: REMARK    6  A    between atoms: N_12  and  C_13
DOCKED: REMARK    7  A    between atoms: N_12  and  C_15
DOCKED: REMARK    8  A    between atoms: C_13  and  C_14
DOCKED: REMARK    9  A    between atoms: C_15  and  C_16
DOCKED: REMARK   10  A    between atoms: N_21  and  C_22
DOCKED: REMARK   11  A    between atoms: C_25  and  C_26
DOCKED: REMARK                            x       y       z     vdW  Elec       q    Type
DOCKED: REMARK                         _______ _______ _______ _____ _____    ______ ____
DOCKED: USER                              x       y       z     vdW  Elec       q    Type
DOCKED: USER                           _______ _______ _______ _____ _____    ______ ____
DOCKED: ROOT
DOCKED: ATOM      1  C   UNL     1      14.341  -2.957   4.739 -0.30 -0.00    +0.000 C 
DOCKED: ENDROOT
DOCKED: BRANCH   1   2
DOCKED: ATOM      2  C   UNL     1      14.600  -4.417   4.500 -0.35 +0.00    +0.000 A 
DOCKED: ATOM      3  C   UNL     1      15.517  -5.120   5.296 -0.39 +0.00    +0.000 A 
DOCKED: ATOM      4  C   UNL     1      15.768  -6.475   5.059 -0.34 +0.00    +0.000 A 
DOCKED: ATOM      5  C   UNL     1      15.114  -7.141   4.013 -0.34 +0.00    +0.000 A 
DOCKED: ATOM      6  C   UNL     1      15.366  -8.499   3.761 -0.34 +0.00    +0.000 A 
DOCKED: ATOM      7  C   UNL     1      14.735  -9.154   2.691 -0.28 +0.00    +0.000 A 
DOCKED: ATOM      8  C   UNL     1      13.815  -8.450   1.898 -0.19 +0.00    +0.000 A 
DOCKED: ATOM      9  C   UNL     1      13.551  -7.099   2.146 -0.16 +0.00    +0.000 A 
DOCKED: ATOM     10  C   UNL     1      14.198  -6.435   3.197 -0.23 +0.00    +0.000 A 
DOCKED: ATOM     11  C   UNL     1      13.946  -5.077   3.448 -0.21 +0.00    +0.000 A 
DOCKED: BRANCH   7  12
DOCKED: ATOM     12  C   UNL     1      15.003 -10.615   2.435 -0.42 +0.00    +0.000 C 
DOCKED: BRANCH  12  13
DOCKED: ATOM     13  N   UNL     1      16.176 -10.792   1.552 -0.34 +0.00    +0.000 N 
DOCKED: ATOM     14  H   UNL     1      16.392  -9.830   1.287 -0.01 +0.00    +0.000 HD
DOCKED: BRANCH  13  15
DOCKED: ATOM     15  C   UNL     1      17.393 -11.267   2.245 -0.46 +0.00    +0.000 C 
DOCKED: ATOM     16  C   UNL     1      18.431 -10.170   2.489 -0.57 -0.00    +0.000 C 
DOCKED: ENDBRANCH  13  15
DOCKED: BRANCH  13  17
DOCKED: ATOM     17  C   UNL     1      15.929 -11.403   0.221 -0.40 +0.00    +0.000 C 
DOCKED: ATOM     18  C   UNL     1      15.223 -12.766   0.258 -0.54 +0.00    +0.000 C 
DOCKED: ENDBRANCH  13  17
DOCKED: ENDBRANCH  12  13
DOCKED: ENDBRANCH   7  12
DOCKED: ENDBRANCH   1   2
DOCKED: BRANCH   1  19
DOCKED: ATOM     19  O   UNL     1      14.903  -2.201   3.671 -0.44 -0.00    +0.000 OA
DOCKED: BRANCH  19  21
DOCKED: ATOM     20  O   UNL     1      16.334  -3.687   2.640 -0.32 -0.00    +0.000 OA
DOCKED: ATOM     21  C   UNL     1      16.127  -2.522   3.078 -0.43 -0.00    +0.000 C 
DOCKED: ATOM     22  N   UNL     1      17.155  -1.524   3.019 -0.41 -0.00    +0.000 N 
DOCKED: ATOM     23  H   UNL     1      16.992  -0.668   3.478 -0.45 -0.00    +0.000 HD
DOCKED: BRANCH  22  24
DOCKED: ATOM     24  C   UNL     1      18.407  -1.689   2.332 -0.39 -0.00    +0.000 A 
DOCKED: ATOM     25  C   UNL     1      19.564  -1.099   2.861 -0.47 -0.00    +0.000 A 
DOCKED: ATOM     26  C   UNL     1      20.790  -1.221   2.201 -0.46 -0.00    +0.000 A 
DOCKED: ATOM     27  C   UNL     1      20.878  -1.919   0.982 -0.40 -0.00    +0.000 A 
DOCKED: ATOM     28  C   UNL     1      19.714  -2.504   0.450 -0.35 -0.00    +0.000 A 
DOCKED: ATOM     29  C   UNL     1      18.490  -2.381   1.113 -0.24 -0.00    +0.000 A 
DOCKED: BRANCH  27  30
DOCKED: ATOM     30  C   UNL     1      22.170  -2.058   0.264 -0.31 -0.00    +0.000 C 
DOCKED: ATOM     31  N   UNL     1      23.247  -1.139   0.481 -0.23 -0.00    +0.000 N 
DOCKED: ATOM     32  O   UNL     1      24.447  -1.347  -0.108 -0.30 -0.00    +0.000 OA
DOCKED: ATOM     33  O   UNL     1      22.322  -2.996  -0.565 -0.67 +0.00    +0.000 OA
DOCKED: ATOM     34  H   UNL     1      23.113  -0.354   1.058 -0.47 -0.00    +0.000 HD
DOCKED: ENDBRANCH  27  30
DOCKED: ENDBRANCH  22  24
DOCKED: ENDBRANCH  19  21
DOCKED: ENDBRANCH   1  19
DOCKED: TORSDOF 9
DOCKED: TER
DOCKED: ENDMDL
________________________________________________________________________________


	BEGINNING GENETIC ALGORITHM DOCKING 88 of 100
Run: 88 Seed: 1753763536 877744111 [ Run 88 of 100 GA/GALS ]
Beginning LAMARCKIAN GENETIC ALGORITHM (LGA), with a maximum of 2500000 energy evaluations.

Final-Value: -16.554


	FINAL GENETIC ALGORITHM DOCKED STATE
	_______________________________________________


Detailed state:  trans 20.149 -10.295 1.816 quatxyzw 0.909629 -0.015116 0.304641 0.282030 center 1.619 0.086 0.013 ntor 9 41.3090 179.3302 -127.1525 147.2649 156.6185 47.4324 -99.3751 144.4115 151.4797
State:	 20.149 -10.295   1.816   0.948 -0.016  0.318 147.237     41.31  179.33 -127.15  147.26  156.62   47.43  -99.38  144.41  151.48

DOCKED: MODEL       88
DOCKED: USER    Run = 88
DOCKED: USER    DPF = ligand_dock.biased.dpf
DOCKED: USER  
DOCKED: USER    Estimated Free Energy of Binding    =  -10.97 kcal/mol  [=(1)+(2)+(3)-(4)]
DOCKED: USER    Estimated Inhibition Constant, Ki   =    9.02 nM (nanomolar)  [Temperature = 298.15 K]
DOCKED: USER    
DOCKED: USER    (1) Final Intermolecular Energy     =  -13.66 kcal/mol
DOCKED: USER        vdW + Hbond + desolv Energy     =  -13.66 kcal/mol
DOCKED: USER        Electrostatic Energy            =   +0.00 kcal/mol
DOCKED: USER    (2) Final Total Internal Energy     =   -2.89 kcal/mol
DOCKED: USER    (3) Torsional Free Energy           =   +2.68 kcal/mol
DOCKED: USER    (4) Unbound System's Energy  [=(2)] =   -2.89 kcal/mol
DOCKED: USER    
DOCKED: USER    
DOCKED: USER    NEWDPF move ligand.pdbqt
DOCKED: USER    NEWDPF about 1.619000 0.086000 0.013000
DOCKED: USER    NEWDPF tran0 20.148880 -10.295181 1.815946
DOCKED: USER    NEWDPF quaternion0 0.909629 -0.015116 0.304641 0.282030
DOCKED: USER    NEWDPF axisangle0 0.948117 -0.015756 0.317531 147.237175
DOCKED: USER    NEWDPF quat0 0.948117 -0.015756 0.317531 147.237175
DOCKED: USER    NEWDPF dihe0 41.31 179.33 -127.15 147.26 156.62 47.43 -99.38 144.41 151.48 
DOCKED: USER  keepresnum = 1 
DOCKED: USER  
DOCKED: REMARK  Name = 
DOCKED: REMARK  11 active torsions:
DOCKED: REMARK  status: ('A' for Active; 'I' for Inactive)
DOCKED: REMARK    1  A    between atoms: C_2  and  O_3
DOCKED: REMARK    2  A    between atoms: O_3  and  C_4
DOCKED: REMARK    3  A    between atoms: C_4  and  C_5
DOCKED: REMARK    4  A    between atoms: C_10  and  C_11
DOCKED: REMARK    5  A    between atoms: C_11  and  N_12
DOCKED: REMARK    6  A    between atoms: N_12  and  C_13
DOCKED: REMARK    7  A    between atoms: N_12  and  C_15
DOCKED: REMARK    8  A    between atoms: C_13  and  C_14
DOCKED: REMARK    9  A    between atoms: C_15  and  C_16
DOCKED: REMARK   10  A    between atoms: N_21  and  C_22
DOCKED: REMARK   11  A    between atoms: C_25  and  C_26
DOCKED: REMARK                            x       y       z     vdW  Elec       q    Type
DOCKED: REMARK                         _______ _______ _______ _____ _____    ______ ____
DOCKED: USER                              x       y       z     vdW  Elec       q    Type
DOCKED: USER                           _______ _______ _______ _____ _____    ______ ____
DOCKED: ROOT
DOCKED: ATOM      1  C   UNL     1      19.073 -11.275   3.719 -0.40 -0.00    +0.000 C 
DOCKED: ENDROOT
DOCKED: BRANCH   1   2
DOCKED: ATOM      2  C   UNL     1      17.978 -10.956   2.741 -0.45 +0.00    +0.000 A 
DOCKED: ATOM      3  C   UNL     1      17.257  -9.758   2.842 -0.40 +0.00    +0.000 A 
DOCKED: ATOM      4  C   UNL     1      16.226  -9.473   1.941 -0.27 +0.00    +0.000 A 
DOCKED: ATOM      5  C   UNL     1      15.895 -10.393   0.935 -0.29 +0.00    +0.000 A 
DOCKED: ATOM      6  C   UNL     1      14.856 -10.120   0.031 -0.24 +0.00    +0.000 A 
DOCKED: ATOM      7  C   UNL     1      14.505 -11.058  -0.953 -0.30 +0.00    +0.000 A 
DOCKED: ATOM      8  C   UNL     1      15.230 -12.256  -1.054 -0.34 +0.00    +0.000 A 
DOCKED: ATOM      9  C   UNL     1      16.272 -12.532  -0.164 -0.46 +0.00    +0.000 A 
DOCKED: ATOM     10  C   UNL     1      16.609 -11.610   0.837 -0.40 +0.00    +0.000 A 
DOCKED: ATOM     11  C   UNL     1      17.647 -11.883   1.740 -0.29 +0.00    +0.000 A 
DOCKED: BRANCH   7  12
DOCKED: ATOM     12  C   UNL     1      13.395 -10.753  -1.927 -0.30 -0.00    +0.000 C 
DOCKED: BRANCH  12  13
DOCKED: ATOM     13  N   UNL     1      13.938 -10.432  -3.265 -0.24 -0.00    +0.000 N 
DOCKED: ATOM     14  H   UNL     1      13.120 -10.049  -3.741 -0.01 -0.00    +0.000 HD
DOCKED: BRANCH  13  15
DOCKED: ATOM     15  C   UNL     1      14.923  -9.331  -3.274 -0.21 -0.00    +0.000 C 
DOCKED: ATOM     16  C   UNL     1      16.339  -9.774  -3.649 -0.24 -0.00    +0.000 C 
DOCKED: ENDBRANCH  13  15
DOCKED: BRANCH  13  17
DOCKED: ATOM     17  C   UNL     1      14.266 -11.580  -4.148 -0.26 -0.00    +0.000 C 
DOCKED: ATOM     18  C   UNL     1      13.849 -11.406  -5.615 -0.27 -0.00    +0.000 C 
DOCKED: ENDBRANCH  13  17
DOCKED: ENDBRANCH  12  13
DOCKED: ENDBRANCH   7  12
DOCKED: ENDBRANCH   1   2
DOCKED: BRANCH   1  19
DOCKED: ATOM     19  O   UNL     1      20.333 -10.995   3.119 -1.30 -0.00    +0.000 OA
DOCKED: BRANCH  19  21
DOCKED: ATOM     20  O   UNL     1      21.213 -12.295   1.429 -1.16 -0.00    +0.000 OA
DOCKED: ATOM     21  C   UNL     1      20.602 -11.245   1.771 -0.74 -0.00    +0.000 C 
DOCKED: ATOM     22  N   UNL     1      20.217 -10.270   0.792 -0.57 -0.00    +0.000 N 
DOCKED: ATOM     23  H   UNL     1      19.852  -9.414   1.114 -0.21 -0.00    +0.000 HD
DOCKED: BRANCH  22  24
DOCKED: ATOM     24  C   UNL     1      20.328 -10.460  -0.629 -0.54 -0.00    +0.000 A 
DOCKED: ATOM     25  C   UNL     1      21.437  -9.937  -1.309 -0.54 -0.00    +0.000 A 
DOCKED: ATOM     26  C   UNL     1      21.557 -10.083  -2.693 -0.39 -0.00    +0.000 A 
DOCKED: ATOM     27  C   UNL     1      20.554 -10.740  -3.431 -0.44 -0.00    +0.000 A 
DOCKED: ATOM     28  C   UNL     1      19.439 -11.259  -2.747 -0.29 -0.00    +0.000 A 
DOCKED: ATOM     29  C   UNL     1      19.322 -11.111  -1.362 -0.37 -0.00    +0.000 A 
DOCKED: BRANCH  27  30
DOCKED: ATOM     30  C   UNL     1      20.662 -10.904  -4.902 -0.49 -0.00    +0.000 C 
DOCKED: ATOM     31  N   UNL     1      19.499 -10.951  -5.736 -0.36 -0.00    +0.000 N 
DOCKED: ATOM     32  O   UNL     1      19.628 -10.997  -7.081 -0.36 -0.00    +0.000 OA
DOCKED: ATOM     33  O   UNL     1      21.801 -11.019  -5.433 -0.52 -0.00    +0.000 OA
DOCKED: ATOM     34  H   UNL     1      18.603 -10.950  -5.328 -0.01 -0.00    +0.000 HD
DOCKED: ENDBRANCH  27  30
DOCKED: ENDBRANCH  22  24
DOCKED: ENDBRANCH  19  21
DOCKED: ENDBRANCH   1  19
DOCKED: TORSDOF 9
DOCKED: TER
DOCKED: ENDMDL
________________________________________________________________________________


	BEGINNING GENETIC ALGORITHM DOCKING 89 of 100
Run: 89 Seed: 2080750466 1471193527 [ Run 89 of 100 GA/GALS ]
Beginning LAMARCKIAN GENETIC ALGORITHM (LGA), with a maximum of 2500000 energy evaluations.

Final-Value: -15.416


	FINAL GENETIC ALGORITHM DOCKED STATE
	_______________________________________________


Detailed state:  trans 22.529 -11.740 -5.935 quatxyzw 0.233755 -0.436469 0.865809 0.072300 center 1.619 0.086 0.013 ntor 9 -124.1568 -23.1378 135.2038 43.8348 159.8555 86.8004 134.9021 -53.1316 103.6183
State:	 22.529 -11.740  -5.935   0.234 -0.438  0.868 171.708   -124.16  -23.14  135.20   43.83  159.86   86.80  134.90  -53.13  103.62

DOCKED: MODEL       89
DOCKED: USER    Run = 89
DOCKED: USER    DPF = ligand_dock.biased.dpf
DOCKED: USER  
DOCKED: USER    Estimated Free Energy of Binding    =  -11.30 kcal/mol  [=(1)+(2)+(3)-(4)]
DOCKED: USER    Estimated Inhibition Constant, Ki   =    5.24 nM (nanomolar)  [Temperature = 298.15 K]
DOCKED: USER    
DOCKED: USER    (1) Final Intermolecular Energy     =  -13.98 kcal/mol
DOCKED: USER        vdW + Hbond + desolv Energy     =  -13.98 kcal/mol
DOCKED: USER        Electrostatic Energy            =   +0.00 kcal/mol
DOCKED: USER    (2) Final Total Internal Energy     =   -1.43 kcal/mol
DOCKED: USER    (3) Torsional Free Energy           =   +2.68 kcal/mol
DOCKED: USER    (4) Unbound System's Energy  [=(2)] =   -1.43 kcal/mol
DOCKED: USER    
DOCKED: USER    
DOCKED: USER    NEWDPF move ligand.pdbqt
DOCKED: USER    NEWDPF about 1.619000 0.086000 0.013000
DOCKED: USER    NEWDPF tran0 22.528776 -11.739698 -5.935372
DOCKED: USER    NEWDPF quaternion0 0.233755 -0.436469 0.865809 0.072300
DOCKED: USER    NEWDPF axisangle0 0.234369 -0.437614 0.868081 171.707790
DOCKED: USER    NEWDPF quat0 0.234369 -0.437614 0.868081 171.707790
DOCKED: USER    NEWDPF dihe0 -124.16 -23.14 135.20 43.83 159.86 86.80 134.90 -53.13 103.62 
DOCKED: USER  keepresnum = 1 
DOCKED: USER  
DOCKED: REMARK  Name = 
DOCKED: REMARK  11 active torsions:
DOCKED: REMARK  status: ('A' for Active; 'I' for Inactive)
DOCKED: REMARK    1  A    between atoms: C_2  and  O_3
DOCKED: REMARK    2  A    between atoms: O_3  and  C_4
DOCKED: REMARK    3  A    between atoms: C_4  and  C_5
DOCKED: REMARK    4  A    between atoms: C_10  and  C_11
DOCKED: REMARK    5  A    between atoms: C_11  and  N_12
DOCKED: REMARK    6  A    between atoms: N_12  and  C_13
DOCKED: REMARK    7  A    between atoms: N_12  and  C_15
DOCKED: REMARK    8  A    between atoms: C_13  and  C_14
DOCKED: REMARK    9  A    between atoms: C_15  and  C_16
DOCKED: REMARK   10  A    between atoms: N_21  and  C_22
DOCKED: REMARK   11  A    between atoms: C_25  and  C_26
DOCKED: REMARK                            x       y       z     vdW  Elec       q    Type
DOCKED: REMARK                         _______ _______ _______ _____ _____    ______ ____
DOCKED: USER                              x       y       z     vdW  Elec       q    Type
DOCKED: USER                           _______ _______ _______ _____ _____    ______ ____
DOCKED: ROOT
DOCKED: ATOM      1  C   UNL     1      21.142  -9.965  -6.751 -0.28 -0.00    +0.000 C 
DOCKED: ENDROOT
DOCKED: BRANCH   1   2
DOCKED: ATOM      2  C   UNL     1      22.531  -9.661  -7.233 -0.23 -0.00    +0.000 A 
DOCKED: ATOM      3  C   UNL     1      22.992  -8.337  -7.293 -0.16 -0.00    +0.000 A 
DOCKED: ATOM      4  C   UNL     1      24.281  -8.057  -7.758 -0.15 -0.00    +0.000 A 
DOCKED: ATOM      5  C   UNL     1      25.120  -9.097  -8.184 -0.20 -0.00    +0.000 A 
DOCKED: ATOM      6  C   UNL     1      26.411  -8.825  -8.661 -0.16 -0.00    +0.000 A 
DOCKED: ATOM      7  C   UNL     1      27.235  -9.866  -9.119 -0.25 -0.00    +0.000 A 
DOCKED: ATOM      8  C   UNL     1      26.773 -11.190  -9.055 -0.30 -0.00    +0.000 A 
DOCKED: ATOM      9  C   UNL     1      25.491 -11.472  -8.573 -0.38 -0.00    +0.000 A 
DOCKED: ATOM     10  C   UNL     1      24.655 -10.433  -8.140 -0.30 -0.00    +0.000 A 
DOCKED: ATOM     11  C   UNL     1      23.364 -10.706  -7.663 -0.33 -0.00    +0.000 A 
DOCKED: BRANCH   7  12
DOCKED: ATOM     12  C   UNL     1      28.625  -9.566  -9.620 -0.23 -0.00    +0.000 C 
DOCKED: BRANCH  12  13
DOCKED: ATOM     13  N   UNL     1      29.648 -10.053  -8.669 -0.34 -0.00    +0.000 N 
DOCKED: ATOM     14  H   UNL     1      29.803 -11.009  -8.993 -0.55 -0.00    +0.000 HD
DOCKED: BRANCH  13  15
DOCKED: ATOM     15  C   UNL     1      30.966  -9.398  -8.804 -0.19 -0.00    +0.000 C 
DOCKED: ATOM     16  C   UNL     1      31.517  -9.410 -10.232 -0.18 -0.00    +0.000 C 
DOCKED: ENDBRANCH  13  15
DOCKED: BRANCH  13  17
DOCKED: ATOM     17  C   UNL     1      29.204 -10.296  -7.272 -0.47 -0.00    +0.000 C 
DOCKED: ATOM     18  C   UNL     1      28.749  -9.042  -6.513 -0.42 -0.00    +0.000 C 
DOCKED: ENDBRANCH  13  17
DOCKED: ENDBRANCH  12  13
DOCKED: ENDBRANCH   7  12
DOCKED: ENDBRANCH   1   2
DOCKED: BRANCH   1  19
DOCKED: ATOM     19  O   UNL     1      21.137 -11.233  -6.103 -0.45 -0.00    +0.000 OA
DOCKED: BRANCH  19  21
DOCKED: ATOM     20  O   UNL     1      19.929 -12.392  -4.516 -0.68 -0.00    +0.000 OA
DOCKED: ATOM     21  C   UNL     1      20.674 -11.413  -4.797 -0.52 -0.00    +0.000 C 
DOCKED: ATOM     22  N   UNL     1      21.021 -10.446  -3.796 -0.46 -0.00    +0.000 N 
DOCKED: ATOM     23  H   UNL     1      21.503  -9.637  -4.085 -0.02 -0.00    +0.000 HD
DOCKED: BRANCH  22  24
DOCKED: ATOM     24  C   UNL     1      20.711 -10.579  -2.399 -0.45 -0.00    +0.000 A 
DOCKED: ATOM     25  C   UNL     1      19.375 -10.723  -2.000 -0.39 -0.00    +0.000 A 
DOCKED: ATOM     26  C   UNL     1      19.043 -10.827  -0.647 -0.42 -0.00    +0.000 A 
DOCKED: ATOM     27  C   UNL     1      20.044 -10.767   0.340 -0.57 -0.00    +0.000 A 
DOCKED: ATOM     28  C   UNL     1      21.383 -10.615  -0.061 -0.60 -0.00    +0.000 A 
DOCKED: ATOM     29  C   UNL     1      21.713 -10.511  -1.416 -0.43 -0.00    +0.000 A 
DOCKED: BRANCH  27  30
DOCKED: ATOM     30  C   UNL     1      19.711 -10.873   1.783 -0.68 -0.00    +0.000 C 
DOCKED: ATOM     31  N   UNL     1      20.125 -12.000   2.564 -0.72 -0.00    +0.000 N 
DOCKED: ATOM     32  O   UNL     1      19.899 -12.023   3.897 -1.26 -0.00    +0.000 OA
DOCKED: ATOM     33  O   UNL     1      19.038  -9.960   2.334 -0.64 -0.00    +0.000 OA
DOCKED: ATOM     34  H   UNL     1      20.575 -12.759   2.129 -0.57 -0.00    +0.000 HD
DOCKED: ENDBRANCH  27  30
DOCKED: ENDBRANCH  22  24
DOCKED: ENDBRANCH  19  21
DOCKED: ENDBRANCH   1  19
DOCKED: TORSDOF 9
DOCKED: TER
DOCKED: ENDMDL
________________________________________________________________________________


	BEGINNING GENETIC ALGORITHM DOCKING 90 of 100
Run: 90 Seed: 125993190 1913769728 [ Run 90 of 100 GA/GALS ]
Beginning LAMARCKIAN GENETIC ALGORITHM (LGA), with a maximum of 2500000 energy evaluations.

Final-Value: -14.536


	FINAL GENETIC ALGORITHM DOCKED STATE
	_______________________________________________


Detailed state:  trans 21.535 -10.911 -5.633 quatxyzw -0.205163 0.515015 -0.830287 -0.057365 center 1.619 0.086 0.013 ntor 9 -122.7542 110.1143 75.9627 158.8469 174.6819 -179.6351 -102.9364 -89.4680 113.0880
State:	 21.535 -10.911  -5.633  -0.206  0.516 -0.832 -173.423   -122.75  110.11   75.96  158.85  174.68 -179.64 -102.94  -89.47  113.09

DOCKED: MODEL       90
DOCKED: USER    Run = 90
DOCKED: USER    DPF = ligand_dock.biased.dpf
DOCKED: USER  
DOCKED: USER    Estimated Free Energy of Binding    =  -10.31 kcal/mol  [=(1)+(2)+(3)-(4)]
DOCKED: USER    Estimated Inhibition Constant, Ki   =   27.94 nM (nanomolar)  [Temperature = 298.15 K]
DOCKED: USER    
DOCKED: USER    (1) Final Intermolecular Energy     =  -12.99 kcal/mol
DOCKED: USER        vdW + Hbond + desolv Energy     =  -12.99 kcal/mol
DOCKED: USER        Electrostatic Energy            =   +0.00 kcal/mol
DOCKED: USER    (2) Final Total Internal Energy     =   -1.55 kcal/mol
DOCKED: USER    (3) Torsional Free Energy           =   +2.68 kcal/mol
DOCKED: USER    (4) Unbound System's Energy  [=(2)] =   -1.55 kcal/mol
DOCKED: USER    
DOCKED: USER    
DOCKED: USER    NEWDPF move ligand.pdbqt
DOCKED: USER    NEWDPF about 1.619000 0.086000 0.013000
DOCKED: USER    NEWDPF tran0 21.535324 -10.910702 -5.633197
DOCKED: USER    NEWDPF quaternion0 -0.205163 0.515015 -0.830287 -0.057365
DOCKED: USER    NEWDPF axisangle0 -0.205502 0.515865 -0.831656 -173.422889
DOCKED: USER    NEWDPF quat0 -0.205502 0.515865 -0.831656 -173.422889
DOCKED: USER    NEWDPF dihe0 -122.75 110.11 75.96 158.85 174.68 -179.64 -102.94 -89.47 113.09 
DOCKED: USER  keepresnum = 1 
DOCKED: USER  
DOCKED: REMARK  Name = 
DOCKED: REMARK  11 active torsions:
DOCKED: REMARK  status: ('A' for Active; 'I' for Inactive)
DOCKED: REMARK    1  A    between atoms: C_2  and  O_3
DOCKED: REMARK    2  A    between atoms: O_3  and  C_4
DOCKED: REMARK    3  A    between atoms: C_4  and  C_5
DOCKED: REMARK    4  A    between atoms: C_10  and  C_11
DOCKED: REMARK    5  A    between atoms: C_11  and  N_12
DOCKED: REMARK    6  A    between atoms: N_12  and  C_13
DOCKED: REMARK    7  A    between atoms: N_12  and  C_15
DOCKED: REMARK    8  A    between atoms: C_13  and  C_14
DOCKED: REMARK    9  A    between atoms: C_15  and  C_16
DOCKED: REMARK   10  A    between atoms: N_21  and  C_22
DOCKED: REMARK   11  A    between atoms: C_25  and  C_26
DOCKED: REMARK                            x       y       z     vdW  Elec       q    Type
DOCKED: REMARK                         _______ _______ _______ _____ _____    ______ ____
DOCKED: USER                              x       y       z     vdW  Elec       q    Type
DOCKED: USER                           _______ _______ _______ _____ _____    ______ ____
DOCKED: ROOT
DOCKED: ATOM      1  C   UNL     1      20.310  -8.918  -6.150 -0.18 -0.00    +0.000 C 
DOCKED: ENDROOT
DOCKED: BRANCH   1   2
DOCKED: ATOM      2  C   UNL     1      21.727  -8.655  -6.572 -0.18 -0.00    +0.000 A 
DOCKED: ATOM      3  C   UNL     1      22.360  -7.449  -6.238 -0.16 -0.00    +0.000 A 
DOCKED: ATOM      4  C   UNL     1      23.673  -7.201  -6.649 -0.11 -0.00    +0.000 A 
DOCKED: ATOM      5  C   UNL     1      24.365  -8.152  -7.412 -0.18 -0.00    +0.000 A 
DOCKED: ATOM      6  C   UNL     1      25.680  -7.908  -7.837 -0.16 -0.00    +0.000 A 
DOCKED: ATOM      7  C   UNL     1      26.358  -8.847  -8.631 -0.16 -0.00    +0.000 A 
DOCKED: ATOM      8  C   UNL     1      25.724 -10.056  -8.962 -0.23 -0.00    +0.000 A 
DOCKED: ATOM      9  C   UNL     1      24.417 -10.311  -8.537 -0.24 -0.00    +0.000 A 
DOCKED: ATOM     10  C   UNL     1      23.727  -9.364  -7.766 -0.21 -0.00    +0.000 A 
DOCKED: ATOM     11  C   UNL     1      22.412  -9.609  -7.342 -0.22 -0.00    +0.000 A 
DOCKED: BRANCH   7  12
DOCKED: ATOM     12  C   UNL     1      27.775  -8.583  -9.074 -0.14 -0.00    +0.000 C 
DOCKED: BRANCH  12  13
DOCKED: ATOM     13  N   UNL     1      28.675  -9.678  -8.652 -0.30 -0.00    +0.000 N 
DOCKED: ATOM     14  H   UNL     1      29.583  -9.211  -8.629 -0.01 -0.00    +0.000 HD
DOCKED: BRANCH  13  15
DOCKED: ATOM     15  C   UNL     1      28.461 -10.141  -7.264 -0.54 -0.00    +0.000 C 
DOCKED: ATOM     16  C   UNL     1      28.437  -9.010  -6.234 -0.37 -0.00    +0.000 C 
DOCKED: ENDBRANCH  13  15
DOCKED: BRANCH  13  17
DOCKED: ATOM     17  C   UNL     1      28.935 -10.753  -9.643 -0.25 -0.00    +0.000 C 
DOCKED: ATOM     18  C   UNL     1      29.763 -10.321 -10.861 -0.27 -0.00    +0.000 C 
DOCKED: ENDBRANCH  13  17
DOCKED: ENDBRANCH  12  13
DOCKED: ENDBRANCH   7  12
DOCKED: ENDBRANCH   1   2
DOCKED: BRANCH   1  19
DOCKED: ATOM     19  O   UNL     1      20.192 -10.270  -5.718 -0.30 -0.00    +0.000 OA
DOCKED: BRANCH  19  21
DOCKED: ATOM     20  O   UNL     1      21.514 -11.224  -4.086 -0.56 -0.00    +0.000 OA
DOCKED: ATOM     21  C   UNL     1      20.426 -10.666  -4.398 -0.47 -0.00    +0.000 C 
DOCKED: ATOM     22  N   UNL     1      19.395 -10.472  -3.420 -0.36 -0.00    +0.000 N 
DOCKED: ATOM     23  H   UNL     1      18.520 -10.144  -3.733 -0.01 -0.00    +0.000 HD
DOCKED: BRANCH  22  24
DOCKED: ATOM     24  C   UNL     1      19.553 -10.724  -2.014 -0.39 -0.00    +0.000 A 
DOCKED: ATOM     25  C   UNL     1      20.788 -10.462  -1.403 -0.53 -0.00    +0.000 A 
DOCKED: ATOM     26  C   UNL     1      20.978 -10.723  -0.044 -0.61 -0.00    +0.000 A 
DOCKED: ATOM     27  C   UNL     1      19.939 -11.274   0.730 -0.61 -0.00    +0.000 A 
DOCKED: ATOM     28  C   UNL     1      18.704 -11.542   0.113 -0.47 -0.00    +0.000 A 
DOCKED: ATOM     29  C   UNL     1      18.516 -11.280  -1.247 -0.37 -0.00    +0.000 A 
DOCKED: BRANCH  27  30
DOCKED: ATOM     30  C   UNL     1      20.122 -11.560   2.175 -0.77 -0.00    +0.000 C 
DOCKED: ATOM     31  N   UNL     1      20.577 -10.552   3.085 -0.65 -0.00    +0.000 N 
DOCKED: ATOM     32  O   UNL     1      20.637 -10.810   4.411 -0.88 -0.00    +0.000 OA
DOCKED: ATOM     33  O   UNL     1      19.886 -12.719   2.614 -1.52 -0.00    +0.000 OA
DOCKED: ATOM     34  H   UNL     1      20.848  -9.670   2.743 -0.58 -0.00    +0.000 HD
DOCKED: ENDBRANCH  27  30
DOCKED: ENDBRANCH  22  24
DOCKED: ENDBRANCH  19  21
DOCKED: ENDBRANCH   1  19
DOCKED: TORSDOF 9
DOCKED: TER
DOCKED: ENDMDL
________________________________________________________________________________


	BEGINNING GENETIC ALGORITHM DOCKING 91 of 100
Run: 91 Seed: 2101457878 1891897787 [ Run 91 of 100 GA/GALS ]
Beginning LAMARCKIAN GENETIC ALGORITHM (LGA), with a maximum of 2500000 energy evaluations.

Final-Value: -15.234


	FINAL GENETIC ALGORITHM DOCKED STATE
	_______________________________________________


Detailed state:  trans 19.178 -10.060 -4.526 quatxyzw 0.437224 -0.011768 -0.767607 -0.468482 center 1.619 0.086 0.013 ntor 9 179.8763 30.6415 -82.2845 -100.3529 126.3249 37.6015 -114.4832 145.3755 -32.3942
State:	 19.178 -10.060  -4.526   0.495 -0.013 -0.869 -124.128    179.88   30.64  -82.28 -100.35  126.32   37.60 -114.48  145.38  -32.39

DOCKED: MODEL       91
DOCKED: USER    Run = 91
DOCKED: USER    DPF = ligand_dock.biased.dpf
DOCKED: USER  
DOCKED: USER    Estimated Free Energy of Binding    =  -10.63 kcal/mol  [=(1)+(2)+(3)-(4)]
DOCKED: USER    Estimated Inhibition Constant, Ki   =   16.26 nM (nanomolar)  [Temperature = 298.15 K]
DOCKED: USER    
DOCKED: USER    (1) Final Intermolecular Energy     =  -13.31 kcal/mol
DOCKED: USER        vdW + Hbond + desolv Energy     =  -13.31 kcal/mol
DOCKED: USER        Electrostatic Energy            =   +0.00 kcal/mol
DOCKED: USER    (2) Final Total Internal Energy     =   -1.92 kcal/mol
DOCKED: USER    (3) Torsional Free Energy           =   +2.68 kcal/mol
DOCKED: USER    (4) Unbound System's Energy  [=(2)] =   -1.92 kcal/mol
DOCKED: USER    
DOCKED: USER    
DOCKED: USER    NEWDPF move ligand.pdbqt
DOCKED: USER    NEWDPF about 1.619000 0.086000 0.013000
DOCKED: USER    NEWDPF tran0 19.178273 -10.060093 -4.526203
DOCKED: USER    NEWDPF quaternion0 0.437224 -0.011768 -0.767607 -0.468482
DOCKED: USER    NEWDPF axisangle0 0.494892 -0.013320 -0.868852 -124.128342
DOCKED: USER    NEWDPF quat0 0.494892 -0.013320 -0.868852 -124.128342
DOCKED: USER    NEWDPF dihe0 179.88 30.64 -82.28 -100.35 126.32 37.60 -114.48 145.38 -32.39 
DOCKED: USER  keepresnum = 1 
DOCKED: USER  
DOCKED: REMARK  Name = 
DOCKED: REMARK  11 active torsions:
DOCKED: REMARK  status: ('A' for Active; 'I' for Inactive)
DOCKED: REMARK    1  A    between atoms: C_2  and  O_3
DOCKED: REMARK    2  A    between atoms: O_3  and  C_4
DOCKED: REMARK    3  A    between atoms: C_4  and  C_5
DOCKED: REMARK    4  A    between atoms: C_10  and  C_11
DOCKED: REMARK    5  A    between atoms: C_11  and  N_12
DOCKED: REMARK    6  A    between atoms: N_12  and  C_13
DOCKED: REMARK    7  A    between atoms: N_12  and  C_15
DOCKED: REMARK    8  A    between atoms: C_13  and  C_14
DOCKED: REMARK    9  A    between atoms: C_15  and  C_16
DOCKED: REMARK   10  A    between atoms: N_21  and  C_22
DOCKED: REMARK   11  A    between atoms: C_25  and  C_26
DOCKED: REMARK                            x       y       z     vdW  Elec       q    Type
DOCKED: REMARK                         _______ _______ _______ _____ _____    ______ ____
DOCKED: USER                              x       y       z     vdW  Elec       q    Type
DOCKED: USER                           _______ _______ _______ _____ _____    ______ ____
DOCKED: ROOT
DOCKED: ATOM      1  C   UNL     1      20.484  -9.220  -6.350 -0.20 -0.00    +0.000 C 
DOCKED: ENDROOT
DOCKED: BRANCH   1   2
DOCKED: ATOM      2  C   UNL     1      20.684  -8.254  -5.217 -0.19 -0.00    +0.000 A 
DOCKED: ATOM      3  C   UNL     1      21.594  -8.539  -4.189 -0.28 -0.00    +0.000 A 
DOCKED: ATOM      4  C   UNL     1      21.764  -7.645  -3.127 -0.25 -0.00    +0.000 A 
DOCKED: ATOM      5  C   UNL     1      21.014  -6.462  -3.073 -0.34 -0.00    +0.000 A 
DOCKED: ATOM      6  C   UNL     1      21.170  -5.564  -2.006 -0.42 -0.00    +0.000 A 
DOCKED: ATOM      7  C   UNL     1      20.392  -4.397  -1.938 -0.32 -0.00    +0.000 A 
DOCKED: ATOM      8  C   UNL     1      19.484  -4.112  -2.970 -0.10 -0.00    +0.000 A 
DOCKED: ATOM      9  C   UNL     1      19.327  -4.997  -4.041 -0.09 -0.00    +0.000 A 
DOCKED: ATOM     10  C   UNL     1      20.083  -6.176  -4.100 -0.18 -0.00    +0.000 A 
DOCKED: ATOM     11  C   UNL     1      19.925  -7.074  -5.166 -0.14 -0.00    +0.000 A 
DOCKED: BRANCH   7  12
DOCKED: ATOM     12  C   UNL     1      20.575  -3.431  -0.794 -0.42 -0.00    +0.000 C 
DOCKED: BRANCH  12  13
DOCKED: ATOM     13  N   UNL     1      21.813  -2.640  -0.961 -0.28 -0.00    +0.000 N 
DOCKED: ATOM     14  H   UNL     1      22.522  -3.369  -1.059 -0.02 +0.00    +0.000 HD
DOCKED: BRANCH  13  15
DOCKED: ATOM     15  C   UNL     1      21.885  -1.881  -2.228 -0.12 -0.00    +0.000 C 
DOCKED: ATOM     16  C   UNL     1      22.887  -2.453  -3.233 -0.10 -0.00    +0.000 C 
DOCKED: ENDBRANCH  13  15
DOCKED: BRANCH  13  17
DOCKED: ATOM     17  C   UNL     1      22.314  -1.917   0.236 -0.30 -0.00    +0.000 C 
DOCKED: ATOM     18  C   UNL     1      21.338  -1.876   1.420 -0.47 -0.00    +0.000 C 
DOCKED: ENDBRANCH  13  17
DOCKED: ENDBRANCH  12  13
DOCKED: ENDBRANCH   7  12
DOCKED: ENDBRANCH   1   2
DOCKED: BRANCH   1  19
DOCKED: ATOM     19  O   UNL     1      19.705 -10.321  -5.896 -0.29 -0.00    +0.000 OA
DOCKED: BRANCH  19  21
DOCKED: ATOM     20  O   UNL     1      20.279 -12.027  -4.454 -0.61 -0.00    +0.000 OA
DOCKED: ATOM     21  C   UNL     1      19.830 -10.859  -4.612 -0.45 -0.00    +0.000 C 
DOCKED: ATOM     22  N   UNL     1      19.398 -10.081  -3.487 -0.32 -0.00    +0.000 N 
DOCKED: ATOM     23  H   UNL     1      18.946  -9.225  -3.666 -0.01 -0.00    +0.000 HD
DOCKED: BRANCH  22  24
DOCKED: ATOM     24  C   UNL     1      19.583 -10.468  -2.115 -0.40 -0.00    +0.000 A 
DOCKED: ATOM     25  C   UNL     1      18.477 -10.893  -1.365 -0.36 -0.00    +0.000 A 
DOCKED: ATOM     26  C   UNL     1      18.623 -11.250  -0.022 -0.44 -0.00    +0.000 A 
DOCKED: ATOM     27  C   UNL     1      19.880 -11.167   0.606 -0.59 -0.00    +0.000 A 
DOCKED: ATOM     28  C   UNL     1      20.986 -10.733  -0.146 -0.60 -0.00    +0.000 A 
DOCKED: ATOM     29  C   UNL     1      20.838 -10.378  -1.490 -0.54 -0.00    +0.000 A 
DOCKED: BRANCH  27  30
DOCKED: ATOM     30  C   UNL     1      20.055 -11.539   2.033 -0.77 -0.00    +0.000 C 
DOCKED: ATOM     31  N   UNL     1      20.210 -10.544   3.051 -0.68 -0.00    +0.000 N 
DOCKED: ATOM     32  O   UNL     1      20.264 -10.906   4.353 -0.94 -0.00    +0.000 OA
DOCKED: ATOM     33  O   UNL     1      20.082 -12.757   2.358 -1.53 -0.00    +0.000 OA
DOCKED: ATOM     34  H   UNL     1      20.277  -9.594   2.802 -0.55 -0.00    +0.000 HD
DOCKED: ENDBRANCH  27  30
DOCKED: ENDBRANCH  22  24
DOCKED: ENDBRANCH  19  21
DOCKED: ENDBRANCH   1  19
DOCKED: TORSDOF 9
DOCKED: TER
DOCKED: ENDMDL
________________________________________________________________________________


	BEGINNING GENETIC ALGORITHM DOCKING 92 of 100
Run: 92 Seed: 1111088669 690811719 [ Run 92 of 100 GA/GALS ]
Beginning LAMARCKIAN GENETIC ALGORITHM (LGA), with a maximum of 2500000 energy evaluations.

Final-Value: -16.323


	FINAL GENETIC ALGORITHM DOCKED STATE
	_______________________________________________


Detailed state:  trans 19.756 -11.422 -5.010 quatxyzw 0.331481 0.213494 -0.001083 -0.918988 center 1.619 0.086 0.013 ntor 9 30.7722 148.8667 85.5213 -2.3447 -180.0000 -111.1400 92.6187 173.8024 143.7037
State:	 19.756 -11.422  -5.010   0.841  0.541 -0.003 -46.443     30.77  148.87   85.52   -2.34 -180.00 -111.14   92.62  173.80  143.70

DOCKED: MODEL       92
DOCKED: USER    Run = 92
DOCKED: USER    DPF = ligand_dock.biased.dpf
DOCKED: USER  
DOCKED: USER    Estimated Free Energy of Binding    =  -11.27 kcal/mol  [=(1)+(2)+(3)-(4)]
DOCKED: USER    Estimated Inhibition Constant, Ki   =    5.51 nM (nanomolar)  [Temperature = 298.15 K]
DOCKED: USER    
DOCKED: USER    (1) Final Intermolecular Energy     =  -13.95 kcal/mol
DOCKED: USER        vdW + Hbond + desolv Energy     =  -13.95 kcal/mol
DOCKED: USER        Electrostatic Energy            =   +0.00 kcal/mol
DOCKED: USER    (2) Final Total Internal Energy     =   -2.37 kcal/mol
DOCKED: USER    (3) Torsional Free Energy           =   +2.68 kcal/mol
DOCKED: USER    (4) Unbound System's Energy  [=(2)] =   -2.37 kcal/mol
DOCKED: USER    
DOCKED: USER    
DOCKED: USER    NEWDPF move ligand.pdbqt
DOCKED: USER    NEWDPF about 1.619000 0.086000 0.013000
DOCKED: USER    NEWDPF tran0 19.756402 -11.422119 -5.010176
DOCKED: USER    NEWDPF quaternion0 0.331481 0.213494 -0.001083 -0.918988
DOCKED: USER    NEWDPF axisangle0 0.840715 0.541471 -0.002746 -46.442710
DOCKED: USER    NEWDPF quat0 0.840715 0.541471 -0.002746 -46.442710
DOCKED: USER    NEWDPF dihe0 30.77 148.87 85.52 -2.34 -180.00 -111.14 92.62 173.80 143.70 
DOCKED: USER  keepresnum = 1 
DOCKED: USER  
DOCKED: REMARK  Name = 
DOCKED: REMARK  11 active torsions:
DOCKED: REMARK  status: ('A' for Active; 'I' for Inactive)
DOCKED: REMARK    1  A    between atoms: C_2  and  O_3
DOCKED: REMARK    2  A    between atoms: O_3  and  C_4
DOCKED: REMARK    3  A    between atoms: C_4  and  C_5
DOCKED: REMARK    4  A    between atoms: C_10  and  C_11
DOCKED: REMARK    5  A    between atoms: C_11  and  N_12
DOCKED: REMARK    6  A    between atoms: N_12  and  C_13
DOCKED: REMARK    7  A    between atoms: N_12  and  C_15
DOCKED: REMARK    8  A    between atoms: C_13  and  C_14
DOCKED: REMARK    9  A    between atoms: C_15  and  C_16
DOCKED: REMARK   10  A    between atoms: N_21  and  C_22
DOCKED: REMARK   11  A    between atoms: C_25  and  C_26
DOCKED: REMARK                            x       y       z     vdW  Elec       q    Type
DOCKED: REMARK                         _______ _______ _______ _____ _____    ______ ____
DOCKED: USER                              x       y       z     vdW  Elec       q    Type
DOCKED: USER                           _______ _______ _______ _____ _____    ______ ____
DOCKED: ROOT
DOCKED: ATOM      1  C   UNL     1      19.116 -10.196  -6.966 -0.27 -0.00    +0.000 C 
DOCKED: ENDROOT
DOCKED: BRANCH   1   2
DOCKED: ATOM      2  C   UNL     1      17.848 -10.450  -6.202 -0.26 -0.00    +0.000 A 
DOCKED: ATOM      3  C   UNL     1      16.951 -11.445  -6.617 -0.32 -0.00    +0.000 A 
DOCKED: ATOM      4  C   UNL     1      15.764 -11.667  -5.913 -0.24 -0.00    +0.000 A 
DOCKED: ATOM      5  C   UNL     1      15.452 -10.884  -4.792 -0.22 -0.00    +0.000 A 
DOCKED: ATOM      6  C   UNL     1      14.258 -11.092  -4.084 -0.26 -0.00    +0.000 A 
DOCKED: ATOM      7  C   UNL     1      13.932 -10.284  -2.983 -0.24 -0.00    +0.000 A 
DOCKED: ATOM      8  C   UNL     1      14.833  -9.290  -2.567 -0.20 -0.00    +0.000 A 
DOCKED: ATOM      9  C   UNL     1      16.029  -9.081  -3.261 -0.16 -0.00    +0.000 A 
DOCKED: ATOM     10  C   UNL     1      16.345  -9.869  -4.377 -0.20 -0.00    +0.000 A 
DOCKED: ATOM     11  C   UNL     1      17.539  -9.659  -5.084 -0.19 -0.00    +0.000 A 
DOCKED: BRANCH   7  12
DOCKED: ATOM     12  C   UNL     1      12.653 -10.521  -2.222 -0.20 -0.00    +0.000 C 
DOCKED: BRANCH  12  13
DOCKED: ATOM     13  N   UNL     1      12.913 -10.627  -0.769 -0.27 +0.00    +0.000 N 
DOCKED: ATOM     14  H   UNL     1      13.579  -9.869  -0.615 +0.00 +0.00    +0.000 HD
DOCKED: BRANCH  13  15
DOCKED: ATOM     15  C   UNL     1      11.755 -10.282   0.083 -0.26 +0.00    +0.000 C 
DOCKED: ATOM     16  C   UNL     1      11.039 -11.500   0.672 -0.39 +0.00    +0.000 C 
DOCKED: ENDBRANCH  13  15
DOCKED: BRANCH  13  17
DOCKED: ATOM     17  C   UNL     1      13.705 -11.798  -0.313 -0.40 +0.00    +0.000 C 
DOCKED: ATOM     18  C   UNL     1      15.139 -11.475   0.127 -0.40 +0.00    +0.000 C 
DOCKED: ENDBRANCH  13  17
DOCKED: ENDBRANCH  12  13
DOCKED: ENDBRANCH   7  12
DOCKED: ENDBRANCH   1   2
DOCKED: BRANCH   1  19
DOCKED: ATOM     19  O   UNL     1      20.225 -10.661  -6.204 -0.34 -0.00    +0.000 OA
DOCKED: BRANCH  19  21
DOCKED: ATOM     20  O   UNL     1      19.933 -12.324  -4.631 -0.72 -0.00    +0.000 OA
DOCKED: ATOM     21  C   UNL     1      20.104 -11.099  -4.882 -0.49 -0.00    +0.000 C 
DOCKED: ATOM     22  N   UNL     1      20.131 -10.131  -3.823 -0.36 -0.00    +0.000 N 
DOCKED: ATOM     23  H   UNL     1      20.147  -9.178  -4.071 +0.00 -0.00    +0.000 HD
DOCKED: BRANCH  22  24
DOCKED: ATOM     24  C   UNL     1      20.138 -10.460  -2.424 -0.44 -0.00    +0.000 A 
DOCKED: ATOM     25  C   UNL     1      21.333 -10.355  -1.698 -0.54 -0.00    +0.000 A 
DOCKED: ATOM     26  C   UNL     1      21.374 -10.693  -0.343 -0.58 -0.00    +0.000 A 
DOCKED: ATOM     27  C   UNL     1      20.221 -11.166   0.310 -0.58 -0.00    +0.000 A 
DOCKED: ATOM     28  C   UNL     1      19.025 -11.278  -0.422 -0.45 -0.00    +0.000 A 
DOCKED: ATOM     29  C   UNL     1      18.986 -10.938  -1.777 -0.38 -0.00    +0.000 A 
DOCKED: BRANCH  27  30
DOCKED: ATOM     30  C   UNL     1      20.246 -11.533   1.748 -0.77 -0.00    +0.000 C 
DOCKED: ATOM     31  N   UNL     1      20.522 -10.561   2.763 -0.63 -0.00    +0.000 N 
DOCKED: ATOM     32  O   UNL     1      20.437 -10.899   4.070 -1.08 -0.00    +0.000 OA
DOCKED: ATOM     33  O   UNL     1      20.032 -12.729   2.088 -1.58 -0.00    +0.000 OA
DOCKED: ATOM     34  H   UNL     1      20.776  -9.645   2.508 -0.55 -0.00    +0.000 HD
DOCKED: ENDBRANCH  27  30
DOCKED: ENDBRANCH  22  24
DOCKED: ENDBRANCH  19  21
DOCKED: ENDBRANCH   1  19
DOCKED: TORSDOF 9
DOCKED: TER
DOCKED: ENDMDL
________________________________________________________________________________


	BEGINNING GENETIC ALGORITHM DOCKING 93 of 100
Run: 93 Seed: 927516313 1882768081 [ Run 93 of 100 GA/GALS ]
Beginning LAMARCKIAN GENETIC ALGORITHM (LGA), with a maximum of 2500000 energy evaluations.

Final-Value: -14.652


	FINAL GENETIC ALGORITHM DOCKED STATE
	_______________________________________________


Detailed state:  trans 19.815 -9.550 1.432 quatxyzw -0.744689 -0.007152 0.024201 -0.666934 center 1.619 0.086 0.013 ntor 9 45.1296 113.3441 -75.8321 161.9208 7.9126 -18.9890 -158.5103 100.4547 4.0286
State:	 19.815  -9.550   1.432  -0.999 -0.010  0.032 -96.338     45.13  113.34  -75.83  161.92    7.91  -18.99 -158.51  100.45    4.03

DOCKED: MODEL       93
DOCKED: USER    Run = 93
DOCKED: USER    DPF = ligand_dock.biased.dpf
DOCKED: USER  
DOCKED: USER    Estimated Free Energy of Binding    =  -10.38 kcal/mol  [=(1)+(2)+(3)-(4)]
DOCKED: USER    Estimated Inhibition Constant, Ki   =   24.67 nM (nanomolar)  [Temperature = 298.15 K]
DOCKED: USER    
DOCKED: USER    (1) Final Intermolecular Energy     =  -13.06 kcal/mol
DOCKED: USER        vdW + Hbond + desolv Energy     =  -13.06 kcal/mol
DOCKED: USER        Electrostatic Energy            =   +0.00 kcal/mol
DOCKED: USER    (2) Final Total Internal Energy     =   -1.59 kcal/mol
DOCKED: USER    (3) Torsional Free Energy           =   +2.68 kcal/mol
DOCKED: USER    (4) Unbound System's Energy  [=(2)] =   -1.59 kcal/mol
DOCKED: USER    
DOCKED: USER    
DOCKED: USER    NEWDPF move ligand.pdbqt
DOCKED: USER    NEWDPF about 1.619000 0.086000 0.013000
DOCKED: USER    NEWDPF tran0 19.814863 -9.550316 1.431631
DOCKED: USER    NEWDPF quaternion0 -0.744689 -0.007152 0.024201 -0.666934
DOCKED: USER    NEWDPF axisangle0 -0.999426 -0.009598 0.032479 -96.338215
DOCKED: USER    NEWDPF quat0 -0.999426 -0.009598 0.032479 -96.338215
DOCKED: USER    NEWDPF dihe0 45.13 113.34 -75.83 161.92 7.91 -18.99 -158.51 100.45 4.03 
DOCKED: USER  keepresnum = 1 
DOCKED: USER  
DOCKED: REMARK  Name = 
DOCKED: REMARK  11 active torsions:
DOCKED: REMARK  status: ('A' for Active; 'I' for Inactive)
DOCKED: REMARK    1  A    between atoms: C_2  and  O_3
DOCKED: REMARK    2  A    between atoms: O_3  and  C_4
DOCKED: REMARK    3  A    between atoms: C_4  and  C_5
DOCKED: REMARK    4  A    between atoms: C_10  and  C_11
DOCKED: REMARK    5  A    between atoms: C_11  and  N_12
DOCKED: REMARK    6  A    between atoms: N_12  and  C_13
DOCKED: REMARK    7  A    between atoms: N_12  and  C_15
DOCKED: REMARK    8  A    between atoms: C_13  and  C_14
DOCKED: REMARK    9  A    between atoms: C_15  and  C_16
DOCKED: REMARK   10  A    between atoms: N_21  and  C_22
DOCKED: REMARK   11  A    between atoms: C_25  and  C_26
DOCKED: REMARK                            x       y       z     vdW  Elec       q    Type
DOCKED: REMARK                         _______ _______ _______ _____ _____    ______ ____
DOCKED: USER                              x       y       z     vdW  Elec       q    Type
DOCKED: USER                           _______ _______ _______ _____ _____    ______ ____
DOCKED: ROOT
DOCKED: ATOM      1  C   UNL     1      20.286 -11.829   2.002 -0.78 -0.00    +0.000 C 
DOCKED: ENDROOT
DOCKED: BRANCH   1   2
DOCKED: ATOM      2  C   UNL     1      18.790 -11.718   1.937 -0.52 -0.00    +0.000 A 
DOCKED: ATOM      3  C   UNL     1      18.060 -12.453   0.991 -0.46 +0.00    +0.000 A 
DOCKED: ATOM      4  C   UNL     1      16.668 -12.333   0.922 -0.42 +0.00    +0.000 A 
DOCKED: ATOM      5  C   UNL     1      15.991 -11.465   1.790 -0.40 +0.00    +0.000 A 
DOCKED: ATOM      6  C   UNL     1      14.596 -11.331   1.722 -0.39 +0.00    +0.000 A 
DOCKED: ATOM      7  C   UNL     1      13.924 -10.435   2.570 -0.31 +0.00    +0.000 A 
DOCKED: ATOM      8  C   UNL     1      14.656  -9.703   3.518 -0.35 +0.00    +0.000 A 
DOCKED: ATOM      9  C   UNL     1      16.046  -9.836   3.598 -0.39 +0.00    +0.000 A 
DOCKED: ATOM     10  C   UNL     1      16.723 -10.710   2.737 -0.43 +0.00    +0.000 A 
DOCKED: ATOM     11  C   UNL     1      18.118 -10.843   2.805 -0.48 +0.00    +0.000 A 
DOCKED: BRANCH   7  12
DOCKED: ATOM     12  C   UNL     1      12.424 -10.306   2.498 -0.14 +0.00    +0.000 C 
DOCKED: BRANCH  12  13
DOCKED: ATOM     13  N   UNL     1      11.961 -10.274   1.093 -0.22 +0.00    +0.000 N 
DOCKED: ATOM     14  H   UNL     1      11.092  -9.743   1.166 +0.00 +0.00    +0.000 HD
DOCKED: BRANCH  13  15
DOCKED: ATOM     15  C   UNL     1      12.813  -9.472   0.190 -0.17 +0.00    +0.000 C 
DOCKED: ATOM     16  C   UNL     1      13.466 -10.288  -0.928 -0.27 +0.00    +0.000 C 
DOCKED: ENDBRANCH  13  15
DOCKED: BRANCH  13  17
DOCKED: ATOM     17  C   UNL     1      11.464 -11.552   0.522 -0.38 +0.00    +0.000 C 
DOCKED: ATOM     18  C   UNL     1      10.103 -12.014   1.062 -0.43 +0.00    +0.000 C 
DOCKED: ENDBRANCH  13  17
DOCKED: ENDBRANCH  12  13
DOCKED: ENDBRANCH   7  12
DOCKED: ENDBRANCH   1   2
DOCKED: BRANCH   1  19
DOCKED: ATOM     19  O   UNL     1      20.866 -10.595   1.591 -0.81 -0.00    +0.000 OA
DOCKED: BRANCH  19  21
DOCKED: ATOM     20  O   UNL     1      21.902  -9.392  -0.082 -0.69 -0.00    +0.000 OA
DOCKED: ATOM     21  C   UNL     1      21.038 -10.250   0.247 -0.70 -0.00    +0.000 C 
DOCKED: ATOM     22  N   UNL     1      20.188 -10.850  -0.740 -0.52 -0.00    +0.000 N 
DOCKED: ATOM     23  H   UNL     1      19.451 -11.423  -0.425 -0.02 -0.00    +0.000 HD
DOCKED: BRANCH  22  24
DOCKED: ATOM     24  C   UNL     1      20.341 -10.672  -2.158 -0.41 -0.00    +0.000 A 
DOCKED: ATOM     25  C   UNL     1      19.283 -11.014  -3.012 -0.34 -0.00    +0.000 A 
DOCKED: ATOM     26  C   UNL     1      19.414 -10.876  -4.396 -0.38 -0.00    +0.000 A 
DOCKED: ATOM     27  C   UNL     1      20.618 -10.413  -4.957 -0.38 -0.00    +0.000 A 
DOCKED: ATOM     28  C   UNL     1      21.681 -10.077  -4.098 -0.38 -0.00    +0.000 A 
DOCKED: ATOM     29  C   UNL     1      21.547 -10.215  -2.714 -0.40 -0.00    +0.000 A 
DOCKED: BRANCH  27  30
DOCKED: ATOM     30  C   UNL     1      20.778 -10.262  -6.425 -0.32 -0.00    +0.000 C 
DOCKED: ATOM     31  N   UNL     1      21.424 -11.267  -7.214 -0.20 -0.00    +0.000 N 
DOCKED: ATOM     32  O   UNL     1      21.465 -11.153  -8.561 -0.31 -0.00    +0.000 OA
DOCKED: ATOM     33  O   UNL     1      20.348  -9.221  -6.993 -0.16 -0.00    +0.000 OA
DOCKED: ATOM     34  H   UNL     1      21.841 -12.043  -6.774 -0.53 -0.00    +0.000 HD
DOCKED: ENDBRANCH  27  30
DOCKED: ENDBRANCH  22  24
DOCKED: ENDBRANCH  19  21
DOCKED: ENDBRANCH   1  19
DOCKED: TORSDOF 9
DOCKED: TER
DOCKED: ENDMDL
________________________________________________________________________________


	BEGINNING GENETIC ALGORITHM DOCKING 94 of 100
Run: 94 Seed: 391101787 100942418 [ Run 94 of 100 GA/GALS ]
Beginning LAMARCKIAN GENETIC ALGORITHM (LGA), with a maximum of 2500000 energy evaluations.

Final-Value: -15.165


	FINAL GENETIC ALGORITHM DOCKED STATE
	_______________________________________________


Detailed state:  trans 20.259 -10.084 1.741 quatxyzw -0.892861 -0.018176 -0.248747 -0.374958 center 1.619 0.086 0.013 ntor 9 -92.7181 168.1250 8.8256 117.5068 96.5244 -169.8025 -83.0996 141.1509 -28.4167
State:	 20.259 -10.084   1.741  -0.963 -0.020 -0.268 -135.957    -92.72  168.12    8.83  117.51   96.52 -169.80  -83.10  141.15  -28.42

DOCKED: MODEL       94
DOCKED: USER    Run = 94
DOCKED: USER    DPF = ligand_dock.biased.dpf
DOCKED: USER  
DOCKED: USER    Estimated Free Energy of Binding    =  -10.45 kcal/mol  [=(1)+(2)+(3)-(4)]
DOCKED: USER    Estimated Inhibition Constant, Ki   =   21.86 nM (nanomolar)  [Temperature = 298.15 K]
DOCKED: USER    
DOCKED: USER    (1) Final Intermolecular Energy     =  -13.14 kcal/mol
DOCKED: USER        vdW + Hbond + desolv Energy     =  -13.14 kcal/mol
DOCKED: USER        Electrostatic Energy            =   +0.00 kcal/mol
DOCKED: USER    (2) Final Total Internal Energy     =   -2.03 kcal/mol
DOCKED: USER    (3) Torsional Free Energy           =   +2.68 kcal/mol
DOCKED: USER    (4) Unbound System's Energy  [=(2)] =   -2.03 kcal/mol
DOCKED: USER    
DOCKED: USER    
DOCKED: USER    NEWDPF move ligand.pdbqt
DOCKED: USER    NEWDPF about 1.619000 0.086000 0.013000
DOCKED: USER    NEWDPF tran0 20.258996 -10.084095 1.740944
DOCKED: USER    NEWDPF quaternion0 -0.892861 -0.018176 -0.248747 -0.374958
DOCKED: USER    NEWDPF axisangle0 -0.963129 -0.019606 -0.268323 -135.956537
DOCKED: USER    NEWDPF quat0 -0.963129 -0.019606 -0.268323 -135.956537
DOCKED: USER    NEWDPF dihe0 -92.72 168.12 8.83 117.51 96.52 -169.80 -83.10 141.15 -28.42 
DOCKED: USER  keepresnum = 1 
DOCKED: USER  
DOCKED: REMARK  Name = 
DOCKED: REMARK  11 active torsions:
DOCKED: REMARK  status: ('A' for Active; 'I' for Inactive)
DOCKED: REMARK    1  A    between atoms: C_2  and  O_3
DOCKED: REMARK    2  A    between atoms: O_3  and  C_4
DOCKED: REMARK    3  A    between atoms: C_4  and  C_5
DOCKED: REMARK    4  A    between atoms: C_10  and  C_11
DOCKED: REMARK    5  A    between atoms: C_11  and  N_12
DOCKED: REMARK    6  A    between atoms: N_12  and  C_13
DOCKED: REMARK    7  A    between atoms: N_12  and  C_15
DOCKED: REMARK    8  A    between atoms: C_13  and  C_14
DOCKED: REMARK    9  A    between atoms: C_15  and  C_16
DOCKED: REMARK   10  A    between atoms: N_21  and  C_22
DOCKED: REMARK   11  A    between atoms: C_25  and  C_26
DOCKED: REMARK                            x       y       z     vdW  Elec       q    Type
DOCKED: REMARK                         _______ _______ _______ _____ _____    ______ ____
DOCKED: USER                              x       y       z     vdW  Elec       q    Type
DOCKED: USER                           _______ _______ _______ _____ _____    ______ ____
DOCKED: ROOT
DOCKED: ATOM      1  C   UNL     1      19.491 -11.497   3.516 -0.66 -0.00    +0.000 C 
DOCKED: ENDROOT
DOCKED: BRANCH   1   2
DOCKED: ATOM      2  C   UNL     1      18.286 -11.203   2.669 -0.43 +0.00    +0.000 A 
DOCKED: ATOM      3  C   UNL     1      18.013 -11.970   1.526 -0.40 +0.00    +0.000 A 
DOCKED: ATOM      4  C   UNL     1      16.900 -11.681   0.730 -0.41 +0.00    +0.000 A 
DOCKED: ATOM      5  C   UNL     1      16.054 -10.612   1.060 -0.31 +0.00    +0.000 A 
DOCKED: ATOM      6  C   UNL     1      14.941 -10.309   0.261 -0.25 +0.00    +0.000 A 
DOCKED: ATOM      7  C   UNL     1      14.116  -9.217   0.575 -0.20 +0.00    +0.000 A 
DOCKED: ATOM      8  C   UNL     1      14.390  -8.453   1.721 -0.23 +0.00    +0.000 A 
DOCKED: ATOM      9  C   UNL     1      15.493  -8.752   2.527 -0.30 +0.00    +0.000 A 
DOCKED: ATOM     10  C   UNL     1      16.333  -9.826   2.202 -0.35 +0.00    +0.000 A 
DOCKED: ATOM     11  C   UNL     1      17.447 -10.128   3.000 -0.36 +0.00    +0.000 A 
DOCKED: BRANCH   7  12
DOCKED: ATOM     12  C   UNL     1      12.915  -8.905  -0.281 -0.15 +0.00    +0.000 C 
DOCKED: BRANCH  12  13
DOCKED: ATOM     13  N   UNL     1      12.146 -10.132  -0.583 -0.22 +0.00    +0.000 N 
DOCKED: ATOM     14  H   UNL     1      11.248  -9.753  -0.887 -0.01 -0.00    +0.000 HD
DOCKED: BRANCH  13  15
DOCKED: ATOM     15  C   UNL     1      12.643 -10.889  -1.751 -0.17 -0.00    +0.000 C 
DOCKED: ATOM     16  C   UNL     1      13.501 -10.056  -2.707 -0.25 -0.00    +0.000 C 
DOCKED: ENDBRANCH  13  15
DOCKED: BRANCH  13  17
DOCKED: ATOM     17  C   UNL     1      11.726 -10.962   0.575 -0.35 +0.00    +0.000 C 
DOCKED: ATOM     18  C   UNL     1      10.225 -11.280   0.630 -0.35 +0.00    +0.000 C 
DOCKED: ENDBRANCH  13  17
DOCKED: ENDBRANCH  12  13
DOCKED: ENDBRANCH   7  12
DOCKED: ENDBRANCH   1   2
DOCKED: BRANCH   1  19
DOCKED: ATOM     19  O   UNL     1      20.646 -10.939   2.899 -1.36 -0.00    +0.000 OA
DOCKED: BRANCH  19  21
DOCKED: ATOM     20  O   UNL     1      21.359 -12.032   0.997 -0.85 -0.00    +0.000 OA
DOCKED: ATOM     21  C   UNL     1      20.869 -10.994   1.520 -0.53 -0.00    +0.000 C 
DOCKED: ATOM     22  N   UNL     1      20.576  -9.839   0.722 -0.54 -0.00    +0.000 N 
DOCKED: ATOM     23  H   UNL     1      20.308  -9.014   1.187 -0.29 -0.00    +0.000 HD
DOCKED: BRANCH  22  24
DOCKED: ATOM     24  C   UNL     1      20.646  -9.807  -0.714 -0.56 -0.00    +0.000 A 
DOCKED: ATOM     25  C   UNL     1      20.092 -10.861  -1.454 -0.40 -0.00    +0.000 A 
DOCKED: ATOM     26  C   UNL     1      20.169 -10.868  -2.849 -0.40 -0.00    +0.000 A 
DOCKED: ATOM     27  C   UNL     1      20.825  -9.828  -3.533 -0.42 -0.00    +0.000 A 
DOCKED: ATOM     28  C   UNL     1      21.386  -8.775  -2.788 -0.42 -0.00    +0.000 A 
DOCKED: ATOM     29  C   UNL     1      21.307  -8.770  -1.392 -0.48 -0.00    +0.000 A 
DOCKED: BRANCH  27  30
DOCKED: ATOM     30  C   UNL     1      20.920  -9.818  -5.014 -0.37 -0.00    +0.000 C 
DOCKED: ATOM     31  N   UNL     1      20.612 -10.982  -5.790 -0.38 -0.00    +0.000 N 
DOCKED: ATOM     32  O   UNL     1      20.607 -10.917  -7.141 -0.34 -0.00    +0.000 OA
DOCKED: ATOM     33  O   UNL     1      21.293  -8.769  -5.607 -0.24 -0.00    +0.000 OA
DOCKED: ATOM     34  H   UNL     1      20.404 -11.831  -5.338 -0.15 -0.00    +0.000 HD
DOCKED: ENDBRANCH  27  30
DOCKED: ENDBRANCH  22  24
DOCKED: ENDBRANCH  19  21
DOCKED: ENDBRANCH   1  19
DOCKED: TORSDOF 9
DOCKED: TER
DOCKED: ENDMDL
________________________________________________________________________________


	BEGINNING GENETIC ALGORITHM DOCKING 95 of 100
Run: 95 Seed: 1531263176 490123943 [ Run 95 of 100 GA/GALS ]
Beginning LAMARCKIAN GENETIC ALGORITHM (LGA), with a maximum of 2500000 energy evaluations.

Final-Value: -14.799


	FINAL GENETIC ALGORITHM DOCKED STATE
	_______________________________________________


Detailed state:  trans 14.518 -9.247 -1.586 quatxyzw 0.241702 0.085767 0.966107 0.029367 center 1.619 0.086 0.013 ntor 9 -179.9105 73.0887 -53.6758 -143.7756 124.1881 -127.5305 92.4702 -176.8283 -176.7601
State:	 14.518  -9.247  -1.586   0.242  0.086  0.967 176.634   -179.91   73.09  -53.68 -143.78  124.19 -127.53   92.47 -176.83 -176.76

DOCKED: MODEL       95
DOCKED: USER    Run = 95
DOCKED: USER    DPF = ligand_dock.biased.dpf
DOCKED: USER  
DOCKED: USER    Estimated Free Energy of Binding    =   -9.94 kcal/mol  [=(1)+(2)+(3)-(4)]
DOCKED: USER    Estimated Inhibition Constant, Ki   =   52.07 nM (nanomolar)  [Temperature = 298.15 K]
DOCKED: USER    
DOCKED: USER    (1) Final Intermolecular Energy     =  -12.62 kcal/mol
DOCKED: USER        vdW + Hbond + desolv Energy     =  -12.62 kcal/mol
DOCKED: USER        Electrostatic Energy            =   +0.00 kcal/mol
DOCKED: USER    (2) Final Total Internal Energy     =   -2.18 kcal/mol
DOCKED: USER    (3) Torsional Free Energy           =   +2.68 kcal/mol
DOCKED: USER    (4) Unbound System's Energy  [=(2)] =   -2.18 kcal/mol
DOCKED: USER    
DOCKED: USER    
DOCKED: USER    NEWDPF move ligand.pdbqt
DOCKED: USER    NEWDPF about 1.619000 0.086000 0.013000
DOCKED: USER    NEWDPF tran0 14.517566 -9.247232 -1.585644
DOCKED: USER    NEWDPF quaternion0 0.241702 0.085767 0.966107 0.029367
DOCKED: USER    NEWDPF axisangle0 0.241806 0.085804 0.966523 176.634315
DOCKED: USER    NEWDPF quat0 0.241806 0.085804 0.966523 176.634315
DOCKED: USER    NEWDPF dihe0 -179.91 73.09 -53.68 -143.78 124.19 -127.53 92.47 -176.83 -176.76 
DOCKED: USER  keepresnum = 1 
DOCKED: USER  
DOCKED: REMARK  Name = 
DOCKED: REMARK  11 active torsions:
DOCKED: REMARK  status: ('A' for Active; 'I' for Inactive)
DOCKED: REMARK    1  A    between atoms: C_2  and  O_3
DOCKED: REMARK    2  A    between atoms: O_3  and  C_4
DOCKED: REMARK    3  A    between atoms: C_4  and  C_5
DOCKED: REMARK    4  A    between atoms: C_10  and  C_11
DOCKED: REMARK    5  A    between atoms: C_11  and  N_12
DOCKED: REMARK    6  A    between atoms: N_12  and  C_13
DOCKED: REMARK    7  A    between atoms: N_12  and  C_15
DOCKED: REMARK    8  A    between atoms: C_13  and  C_14
DOCKED: REMARK    9  A    between atoms: C_15  and  C_16
DOCKED: REMARK   10  A    between atoms: N_21  and  C_22
DOCKED: REMARK   11  A    between atoms: C_25  and  C_26
DOCKED: REMARK                            x       y       z     vdW  Elec       q    Type
DOCKED: REMARK                         _______ _______ _______ _____ _____    ______ ____
DOCKED: USER                              x       y       z     vdW  Elec       q    Type
DOCKED: USER                           _______ _______ _______ _____ _____    ______ ____
DOCKED: ROOT
DOCKED: ATOM      1  C   UNL     1      13.086  -9.354  -3.503 -0.18 -0.00    +0.000 C 
DOCKED: ENDROOT
DOCKED: BRANCH   1   2
DOCKED: ATOM      2  C   UNL     1      14.492  -9.382  -4.032 -0.16 -0.00    +0.000 A 
DOCKED: ATOM      3  C   UNL     1      15.347  -8.286  -3.845 -0.15 -0.00    +0.000 A 
DOCKED: ATOM      4  C   UNL     1      16.649  -8.309  -4.354 -0.13 -0.00    +0.000 A 
DOCKED: ATOM      5  C   UNL     1      17.107  -9.424  -5.071 -0.17 -0.00    +0.000 A 
DOCKED: ATOM      6  C   UNL     1      18.409  -9.452  -5.595 -0.17 -0.00    +0.000 A 
DOCKED: ATOM      7  C   UNL     1      18.852 -10.555  -6.342 -0.29 -0.00    +0.000 A 
DOCKED: ATOM      8  C   UNL     1      17.995 -11.652  -6.526 -0.27 -0.00    +0.000 A 
DOCKED: ATOM      9  C   UNL     1      16.699 -11.636  -6.001 -0.19 -0.00    +0.000 A 
DOCKED: ATOM     10  C   UNL     1      16.244 -10.526  -5.277 -0.22 -0.00    +0.000 A 
DOCKED: ATOM     11  C   UNL     1      14.942 -10.498  -4.755 -0.22 -0.00    +0.000 A 
DOCKED: BRANCH   7  12
DOCKED: ATOM     12  C   UNL     1      20.255 -10.582  -6.891 -0.30 -0.00    +0.000 C 
DOCKED: BRANCH  12  13
DOCKED: ATOM     13  N   UNL     1      21.242 -10.815  -5.814 -0.39 -0.00    +0.000 N 
DOCKED: ATOM     14  H   UNL     1      21.570  -9.869  -5.616 -0.01 -0.00    +0.000 HD
DOCKED: BRANCH  13  15
DOCKED: ATOM     15  C   UNL     1      20.653 -11.277  -4.539 -0.52 -0.00    +0.000 C 
DOCKED: ATOM     16  C   UNL     1      20.661 -10.216  -3.436 -0.50 -0.00    +0.000 C 
DOCKED: ENDBRANCH  13  15
DOCKED: BRANCH  13  17
DOCKED: ATOM     17  C   UNL     1      22.513 -11.481  -6.199 -0.50 -0.00    +0.000 C 
DOCKED: ATOM     18  C   UNL     1      22.991 -11.180  -7.627 -0.42 -0.00    +0.000 C 
DOCKED: ENDBRANCH  13  17
DOCKED: ENDBRANCH  12  13
DOCKED: ENDBRANCH   7  12
DOCKED: ENDBRANCH   1   2
DOCKED: BRANCH   1  19
DOCKED: ATOM     19  O   UNL     1      13.119  -9.396  -2.081 -0.18 -0.00    +0.000 OA
DOCKED: BRANCH  19  21
DOCKED: ATOM     20  O   UNL     1      14.831  -8.359  -0.933 -0.27 -0.00    +0.000 OA
DOCKED: ATOM     21  C   UNL     1      14.312  -9.430  -1.352 -0.24 -0.00    +0.000 C 
DOCKED: ATOM     22  N   UNL     1      14.956 -10.692  -1.130 -0.27 +0.00    +0.000 N 
DOCKED: ATOM     23  H   UNL     1      14.579 -11.486  -1.576 -0.01 +0.00    +0.000 HD
DOCKED: BRANCH  22  24
DOCKED: ATOM     24  C   UNL     1      16.115 -10.876  -0.300 -0.29 +0.00    +0.000 A 
DOCKED: ATOM     25  C   UNL     1      15.947 -11.109   1.073 -0.34 +0.00    +0.000 A 
DOCKED: ATOM     26  C   UNL     1      17.056 -11.266   1.908 -0.40 +0.00    +0.000 A 
DOCKED: ATOM     27  C   UNL     1      18.361 -11.169   1.388 -0.47 -0.00    +0.000 A 
DOCKED: ATOM     28  C   UNL     1      18.526 -10.928   0.012 -0.41 -0.00    +0.000 A 
DOCKED: ATOM     29  C   UNL     1      17.415 -10.772  -0.821 -0.29 -0.00    +0.000 A 
DOCKED: BRANCH  27  30
DOCKED: ATOM     30  C   UNL     1      19.552 -11.329   2.260 -0.71 -0.00    +0.000 C 
DOCKED: ATOM     31  N   UNL     1      19.974 -10.287   3.147 -0.62 -0.00    +0.000 N 
DOCKED: ATOM     32  O   UNL     1      21.000 -10.498   4.003 -0.89 -0.00    +0.000 OA
DOCKED: ATOM     33  O   UNL     1      20.218 -12.400   2.211 -1.89 -0.00    +0.000 OA
DOCKED: ATOM     34  H   UNL     1      19.518  -9.416   3.132 -0.56 -0.00    +0.000 HD
DOCKED: ENDBRANCH  27  30
DOCKED: ENDBRANCH  22  24
DOCKED: ENDBRANCH  19  21
DOCKED: ENDBRANCH   1  19
DOCKED: TORSDOF 9
DOCKED: TER
DOCKED: ENDMDL
________________________________________________________________________________


	BEGINNING GENETIC ALGORITHM DOCKING 96 of 100
Run: 96 Seed: 453796056 1632716809 [ Run 96 of 100 GA/GALS ]
Beginning LAMARCKIAN GENETIC ALGORITHM (LGA), with a maximum of 2500000 energy evaluations.

Final-Value: -15.267


	FINAL GENETIC ALGORITHM DOCKED STATE
	_______________________________________________


Detailed state:  trans 19.160 -10.185 2.101 quatxyzw -0.107391 -0.600778 -0.396241 -0.685949 center 1.619 0.086 0.013 ntor 9 -119.1762 -70.4288 122.8581 153.1413 167.2007 -35.1952 177.0965 -104.4350 -16.5775
State:	 19.160 -10.185   2.101  -0.148 -0.826 -0.545 -93.379   -119.18  -70.43  122.86  153.14  167.20  -35.20  177.10 -104.44  -16.58

DOCKED: MODEL       96
DOCKED: USER    Run = 96
DOCKED: USER    DPF = ligand_dock.biased.dpf
DOCKED: USER  
DOCKED: USER    Estimated Free Energy of Binding    =  -10.81 kcal/mol  [=(1)+(2)+(3)-(4)]
DOCKED: USER    Estimated Inhibition Constant, Ki   =   11.91 nM (nanomolar)  [Temperature = 298.15 K]
DOCKED: USER    
DOCKED: USER    (1) Final Intermolecular Energy     =  -13.50 kcal/mol
DOCKED: USER        vdW + Hbond + desolv Energy     =  -13.50 kcal/mol
DOCKED: USER        Electrostatic Energy            =   +0.00 kcal/mol
DOCKED: USER    (2) Final Total Internal Energy     =   -1.77 kcal/mol
DOCKED: USER    (3) Torsional Free Energy           =   +2.68 kcal/mol
DOCKED: USER    (4) Unbound System's Energy  [=(2)] =   -1.77 kcal/mol
DOCKED: USER    
DOCKED: USER    
DOCKED: USER    NEWDPF move ligand.pdbqt
DOCKED: USER    NEWDPF about 1.619000 0.086000 0.013000
DOCKED: USER    NEWDPF tran0 19.159718 -10.184729 2.101287
DOCKED: USER    NEWDPF quaternion0 -0.107391 -0.600778 -0.396241 -0.685949
DOCKED: USER    NEWDPF axisangle0 -0.147586 -0.825642 -0.544549 -93.379448
DOCKED: USER    NEWDPF quat0 -0.147586 -0.825642 -0.544549 -93.379448
DOCKED: USER    NEWDPF dihe0 -119.18 -70.43 122.86 153.14 167.20 -35.20 177.10 -104.44 -16.58 
DOCKED: USER  keepresnum = 1 
DOCKED: USER  
DOCKED: REMARK  Name = 
DOCKED: REMARK  11 active torsions:
DOCKED: REMARK  status: ('A' for Active; 'I' for Inactive)
DOCKED: REMARK    1  A    between atoms: C_2  and  O_3
DOCKED: REMARK    2  A    between atoms: O_3  and  C_4
DOCKED: REMARK    3  A    between atoms: C_4  and  C_5
DOCKED: REMARK    4  A    between atoms: C_10  and  C_11
DOCKED: REMARK    5  A    between atoms: C_11  and  N_12
DOCKED: REMARK    6  A    between atoms: N_12  and  C_13
DOCKED: REMARK    7  A    between atoms: N_12  and  C_15
DOCKED: REMARK    8  A    between atoms: C_13  and  C_14
DOCKED: REMARK    9  A    between atoms: C_15  and  C_16
DOCKED: REMARK   10  A    between atoms: N_21  and  C_22
DOCKED: REMARK   11  A    between atoms: C_25  and  C_26
DOCKED: REMARK                            x       y       z     vdW  Elec       q    Type
DOCKED: REMARK                         _______ _______ _______ _____ _____    ______ ____
DOCKED: USER                              x       y       z     vdW  Elec       q    Type
DOCKED: USER                           _______ _______ _______ _____ _____    ______ ____
DOCKED: ROOT
DOCKED: ATOM      1  C   UNL     1      20.662 -12.012   1.721 -0.74 -0.00    +0.000 C 
DOCKED: ENDROOT
DOCKED: BRANCH   1   2
DOCKED: ATOM      2  C   UNL     1      20.635 -11.223   0.443 -0.59 -0.00    +0.000 A 
DOCKED: ATOM      3  C   UNL     1      21.624 -10.266   0.175 -0.40 -0.00    +0.000 A 
DOCKED: ATOM      4  C   UNL     1      21.586  -9.521  -1.009 -0.42 -0.00    +0.000 A 
DOCKED: ATOM      5  C   UNL     1      20.548  -9.716  -1.932 -0.48 -0.00    +0.000 A 
DOCKED: ATOM      6  C   UNL     1      20.496  -8.966  -3.117 -0.37 -0.00    +0.000 A 
DOCKED: ATOM      7  C   UNL     1      19.437  -9.139  -4.022 -0.24 -0.00    +0.000 A 
DOCKED: ATOM      8  C   UNL     1      18.450 -10.101  -3.753 -0.28 -0.00    +0.000 A 
DOCKED: ATOM      9  C   UNL     1      18.498 -10.857  -2.578 -0.21 -0.00    +0.000 A 
DOCKED: ATOM     10  C   UNL     1      19.539 -10.669  -1.659 -0.41 -0.00    +0.000 A 
DOCKED: ATOM     11  C   UNL     1      19.591 -11.418  -0.474 -0.36 -0.00    +0.000 A 
DOCKED: BRANCH   7  12
DOCKED: ATOM     12  C   UNL     1      19.394  -8.339  -5.299 -0.18 -0.00    +0.000 C 
DOCKED: BRANCH  12  13
DOCKED: ATOM     13  N   UNL     1      19.497  -9.221  -6.482 -0.14 -0.00    +0.000 N 
DOCKED: ATOM     14  H   UNL     1      19.770  -8.565  -7.215 +0.01 -0.00    +0.000 HD
DOCKED: BRANCH  13  15
DOCKED: ATOM     15  C   UNL     1      20.610 -10.193  -6.421 -0.30 -0.00    +0.000 C 
DOCKED: ATOM     16  C   UNL     1      21.943  -9.577  -5.992 -0.32 -0.00    +0.000 C 
DOCKED: ENDBRANCH  13  15
DOCKED: BRANCH  13  17
DOCKED: ATOM     17  C   UNL     1      18.225  -9.752  -7.036 -0.20 -0.00    +0.000 C 
DOCKED: ATOM     18  C   UNL     1      18.031 -11.265  -6.869 -0.38 -0.00    +0.000 C 
DOCKED: ENDBRANCH  13  17
DOCKED: ENDBRANCH  12  13
DOCKED: ENDBRANCH   7  12
DOCKED: ENDBRANCH   1   2
DOCKED: BRANCH   1  19
DOCKED: ATOM     19  O   UNL     1      19.895 -11.331   2.708 -1.28 -0.00    +0.000 OA
DOCKED: BRANCH  19  21
DOCKED: ATOM     20  O   UNL     1      17.865 -10.702   3.607 -0.45 +0.00    +0.000 OA
DOCKED: ATOM     21  C   UNL     1      18.498 -11.290   2.686 -0.52 -0.00    +0.000 C 
DOCKED: ATOM     22  N   UNL     1      17.798 -11.962   1.631 -0.44 +0.00    +0.000 N 
DOCKED: ATOM     23  H   UNL     1      18.326 -12.507   1.002 -0.07 -0.00    +0.000 HD
DOCKED: BRANCH  22  24
DOCKED: ATOM     24  C   UNL     1      16.376 -11.895   1.428 -0.40 +0.00    +0.000 A 
DOCKED: ATOM     25  C   UNL     1      15.800 -12.591   0.356 -0.45 +0.00    +0.000 A 
DOCKED: ATOM     26  C   UNL     1      14.425 -12.522   0.120 -0.41 +0.00    +0.000 A 
DOCKED: ATOM     27  C   UNL     1      13.598 -11.733   0.941 -0.40 +0.00    +0.000 A 
DOCKED: ATOM     28  C   UNL     1      14.180 -11.029   2.011 -0.36 +0.00    +0.000 A 
DOCKED: ATOM     29  C   UNL     1      15.556 -11.101   2.246 -0.40 +0.00    +0.000 A 
DOCKED: BRANCH  27  30
DOCKED: ATOM     30  C   UNL     1      12.135 -11.644   0.705 -0.42 +0.00    +0.000 C 
DOCKED: ATOM     31  N   UNL     1      11.205 -12.400   1.487 -0.45 +0.00    +0.000 N 
DOCKED: ATOM     32  O   UNL     1       9.874 -12.223   1.320 -0.50 +0.00    +0.000 OA
DOCKED: ATOM     33  O   UNL     1      11.699 -10.897  -0.214 -0.34 +0.00    +0.000 OA
DOCKED: ATOM     34  H   UNL     1      11.535 -13.051   2.147 -0.60 +0.00    +0.000 HD
DOCKED: ENDBRANCH  27  30
DOCKED: ENDBRANCH  22  24
DOCKED: ENDBRANCH  19  21
DOCKED: ENDBRANCH   1  19
DOCKED: TORSDOF 9
DOCKED: TER
DOCKED: ENDMDL
________________________________________________________________________________


	BEGINNING GENETIC ALGORITHM DOCKING 97 of 100
Run: 97 Seed: 722218325 495175085 [ Run 97 of 100 GA/GALS ]
Beginning LAMARCKIAN GENETIC ALGORITHM (LGA), with a maximum of 2500000 energy evaluations.

Final-Value: -14.266


	FINAL GENETIC ALGORITHM DOCKED STATE
	_______________________________________________


Detailed state:  trans 18.961 -10.767 2.768 quatxyzw 0.108439 0.530390 0.171966 0.823016 center 1.619 0.086 0.013 ntor 9 -145.4479 -179.8573 -177.3926 165.5294 -30.1434 180.0000 -71.6385 -175.8942 -174.7750
State:	 18.961 -10.767   2.768   0.191  0.934  0.303 69.224   -145.45 -179.86 -177.39  165.53  -30.14  180.00  -71.64 -175.89 -174.77

DOCKED: MODEL       97
DOCKED: USER    Run = 97
DOCKED: USER    DPF = ligand_dock.biased.dpf
DOCKED: USER  
DOCKED: USER    Estimated Free Energy of Binding    =   -9.76 kcal/mol  [=(1)+(2)+(3)-(4)]
DOCKED: USER    Estimated Inhibition Constant, Ki   =   69.83 nM (nanomolar)  [Temperature = 298.15 K]
DOCKED: USER    
DOCKED: USER    (1) Final Intermolecular Energy     =  -12.45 kcal/mol
DOCKED: USER        vdW + Hbond + desolv Energy     =  -12.45 kcal/mol
DOCKED: USER        Electrostatic Energy            =   +0.00 kcal/mol
DOCKED: USER    (2) Final Total Internal Energy     =   -1.82 kcal/mol
DOCKED: USER    (3) Torsional Free Energy           =   +2.68 kcal/mol
DOCKED: USER    (4) Unbound System's Energy  [=(2)] =   -1.82 kcal/mol
DOCKED: USER    
DOCKED: USER    
DOCKED: USER    NEWDPF move ligand.pdbqt
DOCKED: USER    NEWDPF about 1.619000 0.086000 0.013000
DOCKED: USER    NEWDPF tran0 18.960619 -10.767441 2.767635
DOCKED: USER    NEWDPF quaternion0 0.108439 0.530390 0.171966 0.823016
DOCKED: USER    NEWDPF axisangle0 0.190908 0.933755 0.302748 69.224369
DOCKED: USER    NEWDPF quat0 0.190908 0.933755 0.302748 69.224369
DOCKED: USER    NEWDPF dihe0 -145.45 -179.86 -177.39 165.53 -30.14 180.00 -71.64 -175.89 -174.77 
DOCKED: USER  keepresnum = 1 
DOCKED: USER  
DOCKED: REMARK  Name = 
DOCKED: REMARK  11 active torsions:
DOCKED: REMARK  status: ('A' for Active; 'I' for Inactive)
DOCKED: REMARK    1  A    between atoms: C_2  and  O_3
DOCKED: REMARK    2  A    between atoms: O_3  and  C_4
DOCKED: REMARK    3  A    between atoms: C_4  and  C_5
DOCKED: REMARK    4  A    between atoms: C_10  and  C_11
DOCKED: REMARK    5  A    between atoms: C_11  and  N_12
DOCKED: REMARK    6  A    between atoms: N_12  and  C_13
DOCKED: REMARK    7  A    between atoms: N_12  and  C_15
DOCKED: REMARK    8  A    between atoms: C_13  and  C_14
DOCKED: REMARK    9  A    between atoms: C_15  and  C_16
DOCKED: REMARK   10  A    between atoms: N_21  and  C_22
DOCKED: REMARK   11  A    between atoms: C_25  and  C_26
DOCKED: REMARK                            x       y       z     vdW  Elec       q    Type
DOCKED: REMARK                         _______ _______ _______ _____ _____    ______ ____
DOCKED: USER                              x       y       z     vdW  Elec       q    Type
DOCKED: USER                           _______ _______ _______ _____ _____    ______ ____
DOCKED: ROOT
DOCKED: ATOM      1  C   UNL     1      20.927 -11.973   2.121 -0.52 -0.00    +0.000 C 
DOCKED: ENDROOT
DOCKED: BRANCH   1   2
DOCKED: ATOM      2  C   UNL     1      20.243 -11.579   0.844 -0.60 -0.00    +0.000 A 
DOCKED: ATOM      3  C   UNL     1      18.953 -12.044   0.551 -0.53 -0.00    +0.000 A 
DOCKED: ATOM      4  C   UNL     1      18.327 -11.688  -0.648 -0.42 -0.00    +0.000 A 
DOCKED: ATOM      5  C   UNL     1      18.992 -10.873  -1.577 -0.39 -0.00    +0.000 A 
DOCKED: ATOM      6  C   UNL     1      18.376 -10.519  -2.787 -0.28 -0.00    +0.000 A 
DOCKED: ATOM      7  C   UNL     1      19.057  -9.732  -3.729 -0.27 -0.00    +0.000 A 
DOCKED: ATOM      8  C   UNL     1      20.348  -9.265  -3.432 -0.36 -0.00    +0.000 A 
DOCKED: ATOM      9  C   UNL     1      20.966  -9.606  -2.226 -0.50 -0.00    +0.000 A 
DOCKED: ATOM     10  C   UNL     1      20.299 -10.413  -1.294 -0.50 -0.00    +0.000 A 
DOCKED: ATOM     11  C   UNL     1      20.916 -10.768  -0.084 -0.60 -0.00    +0.000 A 
DOCKED: BRANCH   7  12
DOCKED: ATOM     12  C   UNL     1      18.384  -9.346  -5.022 -0.22 -0.00    +0.000 C 
DOCKED: BRANCH  12  13
DOCKED: ATOM     13  N   UNL     1      18.461 -10.446  -6.008 -0.26 -0.00    +0.000 N 
DOCKED: ATOM     14  H   UNL     1      18.485  -9.939  -6.893 +0.00 -0.00    +0.000 HD
DOCKED: BRANCH  13  15
DOCKED: ATOM     15  C   UNL     1      19.731 -11.203  -5.979 -0.38 -0.00    +0.000 C 
DOCKED: ATOM     16  C   UNL     1      20.917 -10.437  -6.569 -0.33 -0.00    +0.000 C 
DOCKED: ENDBRANCH  13  15
DOCKED: BRANCH  13  17
DOCKED: ATOM     17  C   UNL     1      17.239 -11.272  -6.188 -0.36 -0.00    +0.000 C 
DOCKED: ATOM     18  C   UNL     1      16.915 -11.634  -7.644 -0.37 -0.00    +0.000 C 
DOCKED: ENDBRANCH  13  17
DOCKED: ENDBRANCH  12  13
DOCKED: ENDBRANCH   7  12
DOCKED: ENDBRANCH   1   2
DOCKED: BRANCH   1  19
DOCKED: ATOM     19  O   UNL     1      20.235 -11.394   3.222 -1.47 -0.00    +0.000 OA
DOCKED: BRANCH  19  21
DOCKED: ATOM     20  O   UNL     1      19.141  -9.475   2.556 -0.49 -0.00    +0.000 OA
DOCKED: ATOM     21  C   UNL     1      19.077 -10.627   3.069 -0.60 -0.00    +0.000 C 
DOCKED: ATOM     22  N   UNL     1      17.828 -11.148   3.545 -0.37 +0.00    +0.000 N 
DOCKED: ATOM     23  H   UNL     1      17.844 -11.996   4.045 +0.10 +0.00    +0.000 HD
DOCKED: BRANCH  22  24
DOCKED: ATOM     24  C   UNL     1      16.554 -10.514   3.341 -0.43 +0.00    +0.000 A 
DOCKED: ATOM     25  C   UNL     1      16.314  -9.822   2.146 -0.35 +0.00    +0.000 A 
DOCKED: ATOM     26  C   UNL     1      15.094  -9.174   1.932 -0.27 +0.00    +0.000 A 
DOCKED: ATOM     27  C   UNL     1      14.096  -9.187   2.923 -0.25 +0.00    +0.000 A 
DOCKED: ATOM     28  C   UNL     1      14.342  -9.876   4.125 -0.37 +0.00    +0.000 A 
DOCKED: ATOM     29  C   UNL     1      15.563 -10.523   4.336 -0.43 +0.00    +0.000 A 
DOCKED: BRANCH  27  30
DOCKED: ATOM     30  C   UNL     1      12.794  -8.503   2.716 -0.18 +0.00    +0.000 C 
DOCKED: ATOM     31  N   UNL     1      11.641  -8.839   3.496 -0.17 +0.00    +0.000 N 
DOCKED: ATOM     32  O   UNL     1      10.497  -8.130   3.358 -0.14 +0.00    +0.000 OA
DOCKED: ATOM     33  O   UNL     1      12.694  -7.615   1.825 -0.12 +0.00    +0.000 OA
DOCKED: ATOM     34  H   UNL     1      11.681  -9.588   4.133 +0.00 +0.00    +0.000 HD
DOCKED: ENDBRANCH  27  30
DOCKED: ENDBRANCH  22  24
DOCKED: ENDBRANCH  19  21
DOCKED: ENDBRANCH   1  19
DOCKED: TORSDOF 9
DOCKED: TER
DOCKED: ENDMDL
________________________________________________________________________________


	BEGINNING GENETIC ALGORITHM DOCKING 98 of 100
Run: 98 Seed: 1809406597 1652439273 [ Run 98 of 100 GA/GALS ]
Beginning LAMARCKIAN GENETIC ALGORITHM (LGA), with a maximum of 2500000 energy evaluations.

Final-Value: -14.813


	FINAL GENETIC ALGORITHM DOCKED STATE
	_______________________________________________


Detailed state:  trans 13.745 -9.325 2.437 quatxyzw 0.368822 -0.823448 0.328429 0.279354 center 1.619 0.086 0.013 ntor 9 -9.5009 164.8084 -85.9106 59.0487 166.5343 26.1132 98.1430 -121.9722 168.2507
State:	 13.745  -9.325   2.437   0.384 -0.858  0.342 147.557     -9.50  164.81  -85.91   59.05  166.53   26.11   98.14 -121.97  168.25

DOCKED: MODEL       98
DOCKED: USER    Run = 98
DOCKED: USER    DPF = ligand_dock.biased.dpf
DOCKED: USER  
DOCKED: USER    Estimated Free Energy of Binding    =  -10.42 kcal/mol  [=(1)+(2)+(3)-(4)]
DOCKED: USER    Estimated Inhibition Constant, Ki   =   23.10 nM (nanomolar)  [Temperature = 298.15 K]
DOCKED: USER    
DOCKED: USER    (1) Final Intermolecular Energy     =  -13.10 kcal/mol
DOCKED: USER        vdW + Hbond + desolv Energy     =  -13.10 kcal/mol
DOCKED: USER        Electrostatic Energy            =   +0.00 kcal/mol
DOCKED: USER    (2) Final Total Internal Energy     =   -1.71 kcal/mol
DOCKED: USER    (3) Torsional Free Energy           =   +2.68 kcal/mol
DOCKED: USER    (4) Unbound System's Energy  [=(2)] =   -1.71 kcal/mol
DOCKED: USER    
DOCKED: USER    
DOCKED: USER    NEWDPF move ligand.pdbqt
DOCKED: USER    NEWDPF about 1.619000 0.086000 0.013000
DOCKED: USER    NEWDPF tran0 13.745416 -9.324754 2.436872
DOCKED: USER    NEWDPF quaternion0 0.368822 -0.823448 0.328429 0.279354
DOCKED: USER    NEWDPF axisangle0 0.384115 -0.857590 0.342046 147.556735
DOCKED: USER    NEWDPF quat0 0.384115 -0.857590 0.342046 147.556735
DOCKED: USER    NEWDPF dihe0 -9.50 164.81 -85.91 59.05 166.53 26.11 98.14 -121.97 168.25 
DOCKED: USER  keepresnum = 1 
DOCKED: USER  
DOCKED: REMARK  Name = 
DOCKED: REMARK  11 active torsions:
DOCKED: REMARK  status: ('A' for Active; 'I' for Inactive)
DOCKED: REMARK    1  A    between atoms: C_2  and  O_3
DOCKED: REMARK    2  A    between atoms: O_3  and  C_4
DOCKED: REMARK    3  A    between atoms: C_4  and  C_5
DOCKED: REMARK    4  A    between atoms: C_10  and  C_11
DOCKED: REMARK    5  A    between atoms: C_11  and  N_12
DOCKED: REMARK    6  A    between atoms: N_12  and  C_13
DOCKED: REMARK    7  A    between atoms: N_12  and  C_15
DOCKED: REMARK    8  A    between atoms: C_13  and  C_14
DOCKED: REMARK    9  A    between atoms: C_15  and  C_16
DOCKED: REMARK   10  A    between atoms: N_21  and  C_22
DOCKED: REMARK   11  A    between atoms: C_25  and  C_26
DOCKED: REMARK                            x       y       z     vdW  Elec       q    Type
DOCKED: REMARK                         _______ _______ _______ _____ _____    ______ ____
DOCKED: USER                              x       y       z     vdW  Elec       q    Type
DOCKED: USER                           _______ _______ _______ _____ _____    ______ ____
DOCKED: ROOT
DOCKED: ATOM      1  C   UNL     1      12.031  -8.989   4.076 -0.17 +0.00    +0.000 C 
DOCKED: ENDROOT
DOCKED: BRANCH   1   2
DOCKED: ATOM      2  C   UNL     1      12.976  -7.831   4.221 -0.21 +0.00    +0.000 A 
DOCKED: ATOM      3  C   UNL     1      14.192  -7.982   4.904 -0.37 +0.00    +0.000 A 
DOCKED: ATOM      4  C   UNL     1      15.060  -6.896   5.051 -0.40 +0.00    +0.000 A 
DOCKED: ATOM      5  C   UNL     1      14.716  -5.640   4.529 -0.36 +0.00    +0.000 A 
DOCKED: ATOM      6  C   UNL     1      15.577  -4.543   4.680 -0.42 -0.00    +0.000 A 
DOCKED: ATOM      7  C   UNL     1      15.213  -3.279   4.187 -0.39 -0.00    +0.000 A 
DOCKED: ATOM      8  C   UNL     1      13.997  -3.131   3.500 -0.29 -0.00    +0.000 A 
DOCKED: ATOM      9  C   UNL     1      13.137  -4.221   3.338 -0.18 +0.00    +0.000 A 
DOCKED: ATOM     10  C   UNL     1      13.484  -5.478   3.852 -0.19 +0.00    +0.000 A 
DOCKED: ATOM     11  C   UNL     1      12.623  -6.576   3.701 -0.13 +0.00    +0.000 A 
DOCKED: BRANCH   7  12
DOCKED: ATOM     12  C   UNL     1      16.149  -2.107   4.343 -0.28 -0.00    +0.000 C 
DOCKED: BRANCH  12  13
DOCKED: ATOM     13  N   UNL     1      16.613  -1.621   3.026 -0.39 -0.00    +0.000 N 
DOCKED: ATOM     14  H   UNL     1      16.061  -0.771   2.905 -0.49 -0.00    +0.000 HD
DOCKED: BRANCH  13  15
DOCKED: ATOM     15  C   UNL     1      18.017  -1.156   3.009 -0.35 -0.00    +0.000 C 
DOCKED: ATOM     16  C   UNL     1      19.033  -2.254   3.335 -0.58 -0.00    +0.000 C 
DOCKED: ENDBRANCH  13  15
DOCKED: BRANCH  13  17
DOCKED: ATOM     17  C   UNL     1      16.194  -2.403   1.835 -0.29 -0.00    +0.000 C 
DOCKED: ATOM     18  C   UNL     1      15.433  -1.600   0.771 -0.22 -0.00    +0.000 C 
DOCKED: ENDBRANCH  13  17
DOCKED: ENDBRANCH  12  13
DOCKED: ENDBRANCH   7  12
DOCKED: ENDBRANCH   1   2
DOCKED: BRANCH   1  19
DOCKED: ATOM     19  O   UNL     1      12.426  -9.781   2.961 -0.26 +0.00    +0.000 OA
DOCKED: BRANCH  19  21
DOCKED: ATOM     20  O   UNL     1      13.913 -11.535   3.143 -0.36 +0.00    +0.000 OA
DOCKED: ATOM     21  C   UNL     1      13.707 -10.328   2.837 -0.34 +0.00    +0.000 C 
DOCKED: ATOM     22  N   UNL     1      14.784  -9.487   2.404 -0.27 +0.00    +0.000 N 
DOCKED: ATOM     23  H   UNL     1      14.601  -8.526   2.291 -0.00 +0.00    +0.000 HD
DOCKED: BRANCH  22  24
DOCKED: ATOM     24  C   UNL     1      16.114  -9.954   2.122 -0.34 +0.00    +0.000 A 
DOCKED: ATOM     25  C   UNL     1      17.191  -9.455   2.869 -0.33 +0.00    +0.000 A 
DOCKED: ATOM     26  C   UNL     1      18.497  -9.872   2.599 -0.44 -0.00    +0.000 A 
DOCKED: ATOM     27  C   UNL     1      18.755 -10.782   1.557 -0.49 -0.00    +0.000 A 
DOCKED: ATOM     28  C   UNL     1      17.674 -11.276   0.805 -0.41 -0.00    +0.000 A 
DOCKED: ATOM     29  C   UNL     1      16.368 -10.858   1.078 -0.33 +0.00    +0.000 A 
DOCKED: BRANCH  27  30
DOCKED: ATOM     30  C   UNL     1      20.136 -11.235   1.253 -0.72 -0.00    +0.000 C 
DOCKED: ATOM     31  N   UNL     1      20.823 -10.798   0.075 -0.63 -0.00    +0.000 N 
DOCKED: ATOM     32  O   UNL     1      22.116 -11.142  -0.126 -0.61 -0.00    +0.000 OA
DOCKED: ATOM     33  O   UNL     1      20.716 -12.033   2.039 -1.83 -0.00    +0.000 OA
DOCKED: ATOM     34  H   UNL     1      20.353 -10.246  -0.590 -0.02 -0.00    +0.000 HD
DOCKED: ENDBRANCH  27  30
DOCKED: ENDBRANCH  22  24
DOCKED: ENDBRANCH  19  21
DOCKED: ENDBRANCH   1  19
DOCKED: TORSDOF 9
DOCKED: TER
DOCKED: ENDMDL
________________________________________________________________________________


	BEGINNING GENETIC ALGORITHM DOCKING 99 of 100
Run: 99 Seed: 487322949 591002549 [ Run 99 of 100 GA/GALS ]
Beginning LAMARCKIAN GENETIC ALGORITHM (LGA), with a maximum of 2500000 energy evaluations.

Final-Value: -14.994


	FINAL GENETIC ALGORITHM DOCKED STATE
	_______________________________________________


Detailed state:  trans 21.300 -10.148 -6.202 quatxyzw -0.008760 0.641715 -0.558004 0.526077 center 1.619 0.086 0.013 ntor 9 -50.4381 46.1387 -128.4333 -69.5284 145.4954 66.6294 -67.6475 -81.1477 97.8592
State:	 21.300 -10.148  -6.202  -0.010  0.755 -0.656 116.518    -50.44   46.14 -128.43  -69.53  145.50   66.63  -67.65  -81.15   97.86

DOCKED: MODEL       99
DOCKED: USER    Run = 99
DOCKED: USER    DPF = ligand_dock.biased.dpf
DOCKED: USER  
DOCKED: USER    Estimated Free Energy of Binding    =  -10.75 kcal/mol  [=(1)+(2)+(3)-(4)]
DOCKED: USER    Estimated Inhibition Constant, Ki   =   13.12 nM (nanomolar)  [Temperature = 298.15 K]
DOCKED: USER    
DOCKED: USER    (1) Final Intermolecular Energy     =  -13.44 kcal/mol
DOCKED: USER        vdW + Hbond + desolv Energy     =  -13.44 kcal/mol
DOCKED: USER        Electrostatic Energy            =   +0.00 kcal/mol
DOCKED: USER    (2) Final Total Internal Energy     =   -1.56 kcal/mol
DOCKED: USER    (3) Torsional Free Energy           =   +2.68 kcal/mol
DOCKED: USER    (4) Unbound System's Energy  [=(2)] =   -1.56 kcal/mol
DOCKED: USER    
DOCKED: USER    
DOCKED: USER    NEWDPF move ligand.pdbqt
DOCKED: USER    NEWDPF about 1.619000 0.086000 0.013000
DOCKED: USER    NEWDPF tran0 21.300074 -10.148098 -6.202248
DOCKED: USER    NEWDPF quaternion0 -0.008760 0.641715 -0.558004 0.526077
DOCKED: USER    NEWDPF axisangle0 -0.010301 0.754571 -0.656137 116.518476
DOCKED: USER    NEWDPF quat0 -0.010301 0.754571 -0.656137 116.518476
DOCKED: USER    NEWDPF dihe0 -50.44 46.14 -128.43 -69.53 145.50 66.63 -67.65 -81.15 97.86 
DOCKED: USER  keepresnum = 1 
DOCKED: USER  
DOCKED: REMARK  Name = 
DOCKED: REMARK  11 active torsions:
DOCKED: REMARK  status: ('A' for Active; 'I' for Inactive)
DOCKED: REMARK    1  A    between atoms: C_2  and  O_3
DOCKED: REMARK    2  A    between atoms: O_3  and  C_4
DOCKED: REMARK    3  A    between atoms: C_4  and  C_5
DOCKED: REMARK    4  A    between atoms: C_10  and  C_11
DOCKED: REMARK    5  A    between atoms: C_11  and  N_12
DOCKED: REMARK    6  A    between atoms: N_12  and  C_13
DOCKED: REMARK    7  A    between atoms: N_12  and  C_15
DOCKED: REMARK    8  A    between atoms: C_13  and  C_14
DOCKED: REMARK    9  A    between atoms: C_15  and  C_16
DOCKED: REMARK   10  A    between atoms: N_21  and  C_22
DOCKED: REMARK   11  A    between atoms: C_25  and  C_26
DOCKED: REMARK                            x       y       z     vdW  Elec       q    Type
DOCKED: REMARK                         _______ _______ _______ _____ _____    ______ ____
DOCKED: USER                              x       y       z     vdW  Elec       q    Type
DOCKED: USER                           _______ _______ _______ _____ _____    ______ ____
DOCKED: ROOT
DOCKED: ATOM      1  C   UNL     1      22.896  -8.363  -6.140 -0.14 -0.00    +0.000 C 
DOCKED: ENDROOT
DOCKED: BRANCH   1   2
DOCKED: ATOM      2  C   UNL     1      23.387  -9.322  -7.187 -0.23 -0.00    +0.000 A 
DOCKED: ATOM      3  C   UNL     1      24.759  -9.470  -7.433 -0.24 -0.00    +0.000 A 
DOCKED: ATOM      4  C   UNL     1      25.210 -10.351  -8.421 -0.29 -0.00    +0.000 A 
DOCKED: ATOM      5  C   UNL     1      24.292 -11.085  -9.185 -0.24 -0.00    +0.000 A 
DOCKED: ATOM      6  C   UNL     1      24.735 -11.964 -10.185 -0.23 -0.00    +0.000 A 
DOCKED: ATOM      7  C   UNL     1      23.811 -12.671 -10.972 -0.21 -0.00    +0.000 A 
DOCKED: ATOM      8  C   UNL     1      22.437 -12.525 -10.721 -0.21 -0.00    +0.000 A 
DOCKED: ATOM      9  C   UNL     1      21.987 -11.657  -9.721 -0.16 -0.00    +0.000 A 
DOCKED: ATOM     10  C   UNL     1      22.905 -10.929  -8.952 -0.23 -0.00    +0.000 A 
DOCKED: ATOM     11  C   UNL     1      22.462 -10.050  -7.952 -0.22 -0.00    +0.000 A 
DOCKED: BRANCH   7  12
DOCKED: ATOM     12  C   UNL     1      24.295 -13.623 -12.036 -0.20 -0.00    +0.000 C 
DOCKED: BRANCH  12  13
DOCKED: ATOM     13  N   UNL     1      24.367 -15.006 -11.518 -0.32 +0.00    +0.000 N 
DOCKED: ATOM     14  H   UNL     1      24.470 -14.854 -10.514 -0.03 +0.00    +0.000 HD
DOCKED: BRANCH  13  15
DOCKED: ATOM     15  C   UNL     1      23.108 -15.771 -11.649 -0.34 +0.00    +0.000 C 
DOCKED: ATOM     16  C   UNL     1      22.165 -15.226 -12.724 -0.31 +0.00    +0.000 C 
DOCKED: ENDBRANCH  13  15
DOCKED: BRANCH  13  17
DOCKED: ATOM     17  C   UNL     1      25.604 -15.772 -11.817 -0.28 -0.00    +0.000 C 
DOCKED: ATOM     18  C   UNL     1      26.698 -14.973 -12.540 -0.25 -0.00    +0.000 C 
DOCKED: ENDBRANCH  13  17
DOCKED: ENDBRANCH  12  13
DOCKED: ENDBRANCH   7  12
DOCKED: ENDBRANCH   1   2
DOCKED: BRANCH   1  19
DOCKED: ATOM     19  O   UNL     1      21.627  -8.796  -5.664 -0.27 -0.00    +0.000 OA
DOCKED: BRANCH  19  21
DOCKED: ATOM     20  O   UNL     1      21.918 -10.731  -4.442 -0.53 -0.00    +0.000 OA
DOCKED: ATOM     21  C   UNL     1      21.473  -9.552  -4.498 -0.40 -0.00    +0.000 C 
DOCKED: ATOM     22  N   UNL     1      20.763  -8.983  -3.389 -0.37 -0.00    +0.000 N 
DOCKED: ATOM     23  H   UNL     1      20.331  -8.107  -3.520 -0.01 -0.00    +0.000 HD
DOCKED: BRANCH  22  24
DOCKED: ATOM     24  C   UNL     1      20.640  -9.605  -2.100 -0.48 -0.00    +0.000 A 
DOCKED: ATOM     25  C   UNL     1      19.713 -10.642  -1.921 -0.41 -0.00    +0.000 A 
DOCKED: ATOM     26  C   UNL     1      19.555 -11.247  -0.672 -0.42 -0.00    +0.000 A 
DOCKED: ATOM     27  C   UNL     1      20.308 -10.810   0.434 -0.60 -0.00    +0.000 A 
DOCKED: ATOM     28  C   UNL     1      21.232  -9.765   0.254 -0.57 -0.00    +0.000 A 
DOCKED: ATOM     29  C   UNL     1      21.389  -9.162  -0.997 -0.53 -0.00    +0.000 A 
DOCKED: BRANCH  27  30
DOCKED: ATOM     30  C   UNL     1      20.152 -11.439   1.770 -0.76 -0.00    +0.000 C 
DOCKED: ATOM     31  N   UNL     1      20.382 -10.699   2.975 -0.67 -0.00    +0.000 N 
DOCKED: ATOM     32  O   UNL     1      20.134 -11.265   4.178 -1.08 -0.00    +0.000 OA
DOCKED: ATOM     33  O   UNL     1      19.823 -12.654   1.851 -1.64 -0.00    +0.000 OA
DOCKED: ATOM     34  H   UNL     1      20.723  -9.777   2.926 -0.59 -0.00    +0.000 HD
DOCKED: ENDBRANCH  27  30
DOCKED: ENDBRANCH  22  24
DOCKED: ENDBRANCH  19  21
DOCKED: ENDBRANCH   1  19
DOCKED: TORSDOF 9
DOCKED: TER
DOCKED: ENDMDL
________________________________________________________________________________


	BEGINNING GENETIC ALGORITHM DOCKING 100 of 100
Run: 100 Seed: 562477201 1349576837 [ Run 100 of 100 GA/GALS ]
Beginning LAMARCKIAN GENETIC ALGORITHM (LGA), with a maximum of 2500000 energy evaluations.

Final-Value: -15.005


	FINAL GENETIC ALGORITHM DOCKED STATE
	_______________________________________________


Detailed state:  trans 21.369 -8.189 -5.072 quatxyzw 0.356258 0.461875 0.803452 -0.119234 center 1.619 0.086 0.013 ntor 9 -140.2767 106.7642 65.7432 156.0553 -180.0000 87.9882 -171.6598 91.5533 -30.7152
State:	 21.369  -8.189  -5.072   0.359  0.465  0.809 -166.304   -140.28  106.76   65.74  156.06 -180.00   87.99 -171.66   91.55  -30.72

DOCKED: MODEL      100
DOCKED: USER    Run = 100
DOCKED: USER    DPF = ligand_dock.biased.dpf
DOCKED: USER  
DOCKED: USER    Estimated Free Energy of Binding    =  -10.68 kcal/mol  [=(1)+(2)+(3)-(4)]
DOCKED: USER    Estimated Inhibition Constant, Ki   =   14.77 nM (nanomolar)  [Temperature = 298.15 K]
DOCKED: USER    
DOCKED: USER    (1) Final Intermolecular Energy     =  -13.37 kcal/mol
DOCKED: USER        vdW + Hbond + desolv Energy     =  -13.37 kcal/mol
DOCKED: USER        Electrostatic Energy            =   +0.00 kcal/mol
DOCKED: USER    (2) Final Total Internal Energy     =   -1.64 kcal/mol
DOCKED: USER    (3) Torsional Free Energy           =   +2.68 kcal/mol
DOCKED: USER    (4) Unbound System's Energy  [=(2)] =   -1.64 kcal/mol
DOCKED: USER    
DOCKED: USER    
DOCKED: USER    NEWDPF move ligand.pdbqt
DOCKED: USER    NEWDPF about 1.619000 0.086000 0.013000
DOCKED: USER    NEWDPF tran0 21.369037 -8.188671 -5.072047
DOCKED: USER    NEWDPF quaternion0 0.356258 0.461875 0.803452 -0.119234
DOCKED: USER    NEWDPF axisangle0 0.358818 0.465193 0.809225 -166.304264
DOCKED: USER    NEWDPF quat0 0.358818 0.465193 0.809225 -166.304264
DOCKED: USER    NEWDPF dihe0 -140.28 106.76 65.74 156.06 -180.00 87.99 -171.66 91.55 -30.72 
DOCKED: USER  keepresnum = 1 
DOCKED: USER  
DOCKED: REMARK  Name = 
DOCKED: REMARK  11 active torsions:
DOCKED: REMARK  status: ('A' for Active; 'I' for Inactive)
DOCKED: REMARK    1  A    between atoms: C_2  and  O_3
DOCKED: REMARK    2  A    between atoms: O_3  and  C_4
DOCKED: REMARK    3  A    between atoms: C_4  and  C_5
DOCKED: REMARK    4  A    between atoms: C_10  and  C_11
DOCKED: REMARK    5  A    between atoms: C_11  and  N_12
DOCKED: REMARK    6  A    between atoms: N_12  and  C_13
DOCKED: REMARK    7  A    between atoms: N_12  and  C_15
DOCKED: REMARK    8  A    between atoms: C_13  and  C_14
DOCKED: REMARK    9  A    between atoms: C_15  and  C_16
DOCKED: REMARK   10  A    between atoms: N_21  and  C_22
DOCKED: REMARK   11  A    between atoms: C_25  and  C_26
DOCKED: REMARK                            x       y       z     vdW  Elec       q    Type
DOCKED: REMARK                         _______ _______ _______ _____ _____    ______ ____
DOCKED: USER                              x       y       z     vdW  Elec       q    Type
DOCKED: USER                           _______ _______ _______ _____ _____    ______ ____
DOCKED: ROOT
DOCKED: ATOM      1  C   UNL     1      19.466  -9.366  -5.926 -0.20 -0.00    +0.000 C 
DOCKED: ENDROOT
DOCKED: BRANCH   1   2
DOCKED: ATOM      2  C   UNL     1      20.672 -10.066  -6.484 -0.25 -0.00    +0.000 A 
DOCKED: ATOM      3  C   UNL     1      21.363 -11.018  -5.720 -0.43 -0.00    +0.000 A 
DOCKED: ATOM      4  C   UNL     1      22.496 -11.654  -6.238 -0.45 -0.00    +0.000 A 
DOCKED: ATOM      5  C   UNL     1      22.960 -11.334  -7.522 -0.40 -0.00    +0.000 A 
DOCKED: ATOM      6  C   UNL     1      24.102 -11.960  -8.046 -0.44 -0.00    +0.000 A 
DOCKED: ATOM      7  C   UNL     1      24.584 -11.612  -9.318 -0.30 -0.00    +0.000 A 
DOCKED: ATOM      8  C   UNL     1      23.889 -10.661 -10.082 -0.12 -0.00    +0.000 A 
DOCKED: ATOM      9  C   UNL     1      22.746 -10.038  -9.572 -0.12 -0.00    +0.000 A 
DOCKED: ATOM     10  C   UNL     1      22.276 -10.364  -8.291 -0.22 -0.00    +0.000 A 
DOCKED: ATOM     11  C   UNL     1      21.135  -9.737  -7.768 -0.18 -0.00    +0.000 A 
DOCKED: BRANCH   7  12
DOCKED: ATOM     12  C   UNL     1      25.804 -12.297  -9.878 +0.02 -0.00    +0.000 C 
DOCKED: BRANCH  12  13
DOCKED: ATOM     13  N   UNL     1      25.545 -12.811 -11.241 -0.20 -0.00    +0.000 N 
DOCKED: ATOM     14  H   UNL     1      26.265 -13.528 -11.340 -0.56 -0.00    +0.000 HD
DOCKED: BRANCH  13  15
DOCKED: ATOM     15  C   UNL     1      24.269 -13.545 -11.381 -0.26 -0.00    +0.000 C 
DOCKED: ATOM     16  C   UNL     1      24.239 -14.878 -10.630 -0.43 +0.00    +0.000 C 
DOCKED: ENDBRANCH  13  15
DOCKED: BRANCH  13  17
DOCKED: ATOM     17  C   UNL     1      25.883 -11.911 -12.373 -0.12 -0.00    +0.000 C 
DOCKED: ATOM     18  C   UNL     1      27.379 -11.601 -12.526 -0.17 -0.00    +0.000 C 
DOCKED: ENDBRANCH  13  17
DOCKED: ENDBRANCH  12  13
DOCKED: ENDBRANCH   7  12
DOCKED: ENDBRANCH   1   2
DOCKED: BRANCH   1  19
DOCKED: ATOM     19  O   UNL     1      19.889  -8.356  -5.016 -0.19 -0.00    +0.000 OA
DOCKED: BRANCH  19  21
DOCKED: ATOM     20  O   UNL     1      20.267  -7.630  -2.860 -0.30 -0.00    +0.000 OA
DOCKED: ATOM     21  C   UNL     1      20.062  -8.593  -3.649 -0.31 -0.00    +0.000 C 
DOCKED: ATOM     22  N   UNL     1      20.050  -9.944  -3.170 -0.37 -0.00    +0.000 N 
DOCKED: ATOM     23  H   UNL     1      20.007 -10.668  -3.836 -0.01 -0.00    +0.000 HD
DOCKED: BRANCH  22  24
DOCKED: ATOM     24  C   UNL     1      20.097 -10.312  -1.781 -0.45 -0.00    +0.000 A 
DOCKED: ATOM     25  C   UNL     1      21.165  -9.869  -0.987 -0.59 -0.00    +0.000 A 
DOCKED: ATOM     26  C   UNL     1      21.249 -10.233   0.359 -0.54 -0.00    +0.000 A 
DOCKED: ATOM     27  C   UNL     1      20.274 -11.070   0.935 -0.63 -0.00    +0.000 A 
DOCKED: ATOM     28  C   UNL     1      19.208 -11.518   0.135 -0.51 -0.00    +0.000 A 
DOCKED: ATOM     29  C   UNL     1      19.125 -11.152  -1.212 -0.39 -0.00    +0.000 A 
DOCKED: BRANCH  27  30
DOCKED: ATOM     30  C   UNL     1      20.348 -11.470   2.363 -0.75 -0.00    +0.000 C 
DOCKED: ATOM     31  N   UNL     1      20.677 -10.526   3.387 -0.63 -0.00    +0.000 N 
DOCKED: ATOM     32  O   UNL     1      20.636 -10.892   4.689 -0.66 -0.00    +0.000 OA
DOCKED: ATOM     33  O   UNL     1      20.129 -12.670   2.683 -1.57 -0.00    +0.000 OA
DOCKED: ATOM     34  H   UNL     1      20.935  -9.608   3.143 -0.60 -0.00    +0.000 HD
DOCKED: ENDBRANCH  27  30
DOCKED: ENDBRANCH  22  24
DOCKED: ENDBRANCH  19  21
DOCKED: ENDBRANCH   1  19
DOCKED: TORSDOF 9
DOCKED: TER
DOCKED: ENDMDL
________________________________________________________________________________

DPF>                           # do this many hybrid GA-LS runs

DPF> analysis                             # perform a ranked cluster analysis


		CLUSTER ANALYSIS OF CONFORMATIONS
		_________________________________

Number of conformations = 100

RMSD cluster analysis will be performed using the ligand atoms only (34 / 34 total atoms).

Outputting structurally similar clusters, ranked in order of increasing energy.


________________________________________________________________________________

Number of distinct conformational clusters found = 23,  out of 100 runs,
Using an rmsd-tolerance of 2.0 A


	CLUSTERING HISTOGRAM
	____________________

________________________________________________________________________________
     |           |     |           |     |                                    
Clus | Lowest    | Run | Mean      | Num | Histogram                          
-ter | Binding   |     | Binding   | in  |                                    
Rank | Energy    |     | Energy    | Clus|    5    10   15   20   25   30   35
_____|___________|_____|___________|_____|____:____|____:____|____:____|____:___
   1 |    -11.84 |  51 |    -10.90 |  12 |############
   2 |    -11.49 |  84 |    -10.70 |   8 |########
   3 |    -11.43 |  28 |    -10.79 |  15 |###############
   4 |    -11.40 |   6 |    -10.68 |   4 |####
   5 |    -11.19 |  35 |    -10.62 |   7 |#######
   6 |    -11.18 |  66 |    -10.52 |   9 |#########
   7 |    -11.00 |  10 |    -10.67 |   6 |######
   8 |    -10.96 |  42 |    -10.67 |   2 |##
   9 |    -10.79 |   8 |    -10.27 |   2 |##
  10 |    -10.75 |   4 |    -10.44 |   8 |########
  11 |    -10.71 |   1 |    -10.47 |   2 |##
  12 |    -10.52 |  22 |     -9.88 |   9 |#########
  13 |    -10.42 |  98 |    -10.42 |   1 |#
  14 |    -10.23 |  82 |    -10.23 |   1 |#
  15 |    -10.17 |  79 |     -9.84 |   2 |##
  16 |    -10.08 |  80 |    -10.08 |   1 |#
  17 |    -10.05 |  41 |     -9.90 |   2 |##
  18 |     -9.98 |  38 |     -9.98 |   1 |#
  19 |     -9.94 |  95 |     -9.73 |   3 |###
  20 |     -9.87 |  52 |     -9.86 |   2 |##
  21 |     -9.86 |  12 |     -9.86 |   1 |#
  22 |     -9.81 |  16 |     -9.81 |   1 |#
  23 |     -9.71 |  50 |     -9.71 |   1 |#
_____|___________|_____|___________|_____|______________________________________


Number of multi-member conformational clusters found = 16, out of 100 runs.

	RMSD TABLE
	__________

_____________________________________________________________________
     |      |      |           |         |                 |
Rank | Sub- | Run  | Binding   | Cluster | Reference       | Grep
     | Rank |      | Energy    | RMSD    | RMSD            | Pattern
_____|______|______|___________|_________|_________________|___________
   1      1     51      -11.84      0.00     19.40           RANKING
   1      2     19      -11.69      1.38     19.87           RANKING
   1      3     63      -11.60      1.32     19.91           RANKING
   1      4     54      -11.56      1.40     20.02           RANKING
   1      5     89      -11.30      1.43     19.81           RANKING
   1      6      2      -11.16      1.76     20.18           RANKING
   1      7     25      -10.65      1.46     19.83           RANKING
   1      8     67      -10.40      1.49     18.54           RANKING
   1      9     40      -10.38      1.33     19.84           RANKING
   1     10     90      -10.31      1.34     18.96           RANKING
   1     11     85      -10.30      1.88     20.11           RANKING
   1     12     71       -9.59      1.60     19.12           RANKING
   2      1     84      -11.49      0.00     13.58           RANKING
   2      2     48      -10.95      1.29     13.97           RANKING
   2      3     14      -10.94      1.61     14.48           RANKING
   2      4     78      -10.94      1.30     14.42           RANKING
   2      5     68      -10.60      1.78     14.13           RANKING
   2      6     77      -10.31      1.42     14.24           RANKING
   2      7     62      -10.26      1.30     13.70           RANKING
   2      8     65      -10.12      1.17     13.70           RANKING
   3      1     28      -11.43      0.00     14.99           RANKING
   3      2     37      -11.38      0.60     14.83           RANKING
   3      3     92      -11.27      0.62     14.81           RANKING
   3      4     59      -11.26      0.70     14.79           RANKING
   3      5     69      -11.18      0.79     15.20           RANKING
   3      6     34      -11.07      0.70     14.79           RANKING
   3      7     26      -11.03      0.71     15.06           RANKING
   3      8     56      -10.92      0.80     14.84           RANKING
   3      9     36      -10.83      0.93     14.96           RANKING
   3     10     11      -10.51      0.99     15.08           RANKING
   3     11     70      -10.50      1.06     15.02           RANKING
   3     12     27      -10.22      0.86     14.63           RANKING
   3     13      9      -10.18      1.32     14.67           RANKING
   3     14     17      -10.12      1.39     14.17           RANKING
   3     15     86       -9.98      1.39     14.28           RANKING
   4      1      6      -11.40      0.00     14.76           RANKING
   4      2     91      -10.63      1.13     14.75           RANKING
   4      3     53      -10.58      1.15     15.27           RANKING
   4      4     20      -10.12      1.72     15.65           RANKING
   5      1     35      -11.19      0.00     14.68           RANKING
   5      2     88      -10.97      0.93     14.92           RANKING
   5      3     32      -10.77      0.70     14.73           RANKING
   5      4     21      -10.48      1.51     14.83           RANKING
   5      5     15      -10.46      1.46     15.15           RANKING
   5      6     94      -10.45      1.30     14.42           RANKING
   5      7     76      -10.03      1.77     14.82           RANKING
   6      1     66      -11.18      0.00     15.99           RANKING
   6      2     96      -10.81      1.73     15.05           RANKING
   6      3     47      -10.79      1.76     14.99           RANKING
   6      4     49      -10.71      1.66     15.07           RANKING
   6      5     18      -10.70      1.53     15.19           RANKING
   6      6      7      -10.68      1.63     15.34           RANKING
   6      7     30      -10.25      1.39     15.60           RANKING
   6      8     44      -10.24      1.69     15.02           RANKING
   6      9     57       -9.36      1.47     15.12           RANKING
   7      1     10      -11.00      0.00     19.96           RANKING
   7      2     99      -10.75      1.21     19.83           RANKING
   7      3     74      -10.72      1.53     19.84           RANKING
   7      4    100      -10.68      1.48     19.08           RANKING
   7      5     46      -10.52      1.80     18.94           RANKING
   7      6      3      -10.33      1.70     19.13           RANKING
   8      1     42      -10.96      0.00     12.30           RANKING
   8      2     61      -10.39      1.91     13.09           RANKING
   9      1      8      -10.79      0.00     14.37           RANKING
   9      2     97       -9.76      1.90     14.39           RANKING
  10      1      4      -10.75      0.00     15.16           RANKING
  10      2     29      -10.48      1.42     15.55           RANKING
  10      3     83      -10.47      1.16     15.13           RANKING
  10      4     31      -10.43      1.98     14.90           RANKING
  10      5     39      -10.40      1.91     14.88           RANKING
  10      6     93      -10.38      1.20     14.97           RANKING
  10      7     64      -10.32      1.55     14.64           RANKING
  10      8     33      -10.31      1.03     15.03           RANKING
  11      1      1      -10.71      0.00     14.84           RANKING
  11      2     81      -10.24      0.82     14.71           RANKING
  12      1     22      -10.52      0.00     16.01           RANKING
  12      2     72      -10.40      0.86     16.21           RANKING
  12      3     58      -10.08      1.17     16.17           RANKING
  12      4      5      -10.04      1.09     16.14           RANKING
  12      5     24      -10.00      0.98     15.93           RANKING
  12      6     55       -9.86      1.58     16.64           RANKING
  12      7     23       -9.54      1.73     15.69           RANKING
  12      8     73       -9.53      1.44     16.14           RANKING
  12      9     43       -8.97      1.97     15.86           RANKING
  13      1     98      -10.42      0.00     11.15           RANKING
  14      1     82      -10.23      0.00     12.82           RANKING
  15      1     79      -10.17      0.00     10.68           RANKING
  15      2     87       -9.51      1.38     10.84           RANKING
  16      1     80      -10.08      0.00     10.78           RANKING
  17      1     41      -10.05      0.00     13.83           RANKING
  17      2     13       -9.76      1.03     13.81           RANKING
  18      1     38       -9.98      0.00     13.65           RANKING
  19      1     95       -9.94      0.00     14.91           RANKING
  19      2     60       -9.91      1.47     15.71           RANKING
  19      3     75       -9.35      0.72     14.63           RANKING
  20      1     52       -9.87      0.00      9.71           RANKING
  20      2     45       -9.85      0.77      9.69           RANKING
  21      1     12       -9.86      0.00     17.38           RANKING
  22      1     16       -9.81      0.00     16.57           RANKING
  23      1     50       -9.71      0.00     15.29           RANKING
_______________________________________________________________________



	INFORMATION ENTROPY ANALYSIS FOR THIS CLUSTERING
	________________________________________________


Information entropy for this clustering = 0.60  (rmstol = 2.00 Angstrom)

_______________________________________________________________________


	STATISTICAL MECHANICAL ANALYSIS
	_______________________________


Partition function, Q =   101.78            at Temperature, T = 298.15 K
Free energy,        A ~ -2738.96 kcal/mol   at Temperature, T = 298.15 K
Internal energy,    U =   -10.48 kcal/mol   at Temperature, T = 298.15 K
Entropy,            S =     9.15 kcal/mol/K at Temperature, T = 298.15 K

_______________________________________________________________________


	LOWEST ENERGY DOCKED CONFORMATION from EACH CLUSTER
	___________________________________________________



Keeping original residue number (specified in the input PDBQ file) for outputting.

MODEL       51
USER    Run = 51
USER    Cluster Rank = 1
USER    Number of conformations in this cluster = 12
USER  
USER    RMSD from reference structure       = 19.403 A
USER  
USER    Estimated Free Energy of Binding    =  -11.84 kcal/mol  [=(1)+(2)+(3)-(4)]
USER    Estimated Inhibition Constant, Ki   =    2.08 nM (nanomolar)  [Temperature = 298.15 K]
USER    
USER    (1) Final Intermolecular Energy     =  -14.53 kcal/mol
USER        vdW + Hbond + desolv Energy     =  -14.53 kcal/mol
USER        Electrostatic Energy            =   +0.00 kcal/mol
USER    (2) Final Total Internal Energy     =   -1.73 kcal/mol
USER    (3) Torsional Free Energy           =   +2.68 kcal/mol
USER    (4) Unbound System's Energy  [=(2)] =   -1.73 kcal/mol
USER    
USER    
USER  
USER    DPF = ligand_dock.biased.dpf
USER    NEWDPF move	ligand.pdbqt
USER    NEWDPF about	1.619000 0.086000 0.013000
USER    NEWDPF tran0	22.342251 -8.041594 -5.441801
USER    NEWDPF axisangle0	-0.300355 -0.464187 -0.833257 172.070008
USER    NEWDPF quaternion0	-0.299636 -0.463076 -0.831263 0.069147
USER    NEWDPF dihe0	-87.41 -59.20 -112.02 91.64 -56.15 -100.97 178.17 86.14 10.38 
USER  
USER                              x       y       z    vdW   Elec        q     RMS 
ATOM      1  C   UNL     1      20.680  -9.427  -6.469 -0.22 -0.00    +0.000    19.403
ATOM      2  C   UNL     1      22.004  -9.924  -6.974 -0.26 -0.00    +0.000    19.403
ATOM      3  C   UNL     1      22.378 -11.264  -6.799 -0.40 -0.00    +0.000    19.403
ATOM      4  C   UNL     1      23.620 -11.719  -7.255 -0.46 -0.00    +0.000    19.403
ATOM      5  C   UNL     1      24.510 -10.833  -7.879 -0.35 -0.00    +0.000    19.403
ATOM      6  C   UNL     1      25.762 -11.277  -8.330 -0.36 -0.00    +0.000    19.403
ATOM      7  C   UNL     1      26.664 -10.380  -8.924 -0.31 -0.00    +0.000    19.403
ATOM      8  C   UNL     1      26.287  -9.039  -9.101 -0.13 -0.00    +0.000    19.403
ATOM      9  C   UNL     1      25.039  -8.589  -8.661 -0.12 -0.00    +0.000    19.403
ATOM     10  C   UNL     1      24.145  -9.476  -8.045 -0.21 -0.00    +0.000    19.403
ATOM     11  C   UNL     1      22.894  -9.031  -7.592 -0.17 -0.00    +0.000    19.403
ATOM     12  C   UNL     1      28.003 -10.867  -9.417 -0.29 -0.00    +0.000    19.403
ATOM     13  N   UNL     1      29.094 -10.410  -8.528 -0.43 -0.00    +0.000    19.403
ATOM     14  H   UNL     1      29.670 -11.249  -8.446 -0.63 -0.00    +0.000    19.403
ATOM     15  C   UNL     1      29.990  -9.402  -9.134 -0.25 -0.00    +0.000    19.403
ATOM     16  C   UNL     1      29.857  -9.294 -10.655 -0.16 -0.00    +0.000    19.403
ATOM     17  C   UNL     1      28.743 -10.167  -7.105 -0.50 -0.00    +0.000    19.403
ATOM     18  C   UNL     1      28.532  -8.693  -6.735 -0.43 -0.00    +0.000    19.403
ATOM     19  O   UNL     1      20.900  -8.415  -5.493 -0.20 -0.00    +0.000    19.403
ATOM     20  O   UNL     1      21.127  -7.746  -3.297 -0.41 -0.00    +0.000    19.403
ATOM     21  C   UNL     1      20.912  -8.678  -4.120 -0.36 -0.00    +0.000    19.403
ATOM     22  N   UNL     1      20.722 -10.026  -3.667 -0.41 -0.00    +0.000    19.403
ATOM     23  H   UNL     1      20.677 -10.737  -4.347 -0.01 -0.00    +0.000    19.403
ATOM     24  C   UNL     1      20.594 -10.407  -2.288 -0.48 -0.00    +0.000    19.403
ATOM     25  C   UNL     1      19.377 -10.932  -1.829 -0.38 -0.00    +0.000    19.403
ATOM     26  C   UNL     1      19.215 -11.287  -0.488 -0.45 -0.00    +0.000    19.403
ATOM     27  C   UNL     1      20.266 -11.102   0.431 -0.59 -0.00    +0.000    19.403
ATOM     28  C   UNL     1      21.483 -10.569  -0.030 -0.55 -0.00    +0.000    19.403
ATOM     29  C   UNL     1      21.642 -10.216  -1.373 -0.44 -0.00    +0.000    19.403
ATOM     30  C   UNL     1      20.113 -11.470   1.861 -0.76 -0.00    +0.000    19.403
ATOM     31  N   UNL     1      20.541 -10.592   2.908 -0.64 -0.00    +0.000    19.403
ATOM     32  O   UNL     1      20.297 -10.906   4.201 -1.03 -0.00    +0.000    19.403
ATOM     33  O   UNL     1      19.608 -12.586   2.165 -1.55 -0.00    +0.000    19.403
ATOM     34  H   UNL     1      21.015  -9.759   2.686 -0.60 -0.00    +0.000    19.403
TER
ENDMDL
MODEL       84
USER    Run = 84
USER    Cluster Rank = 2
USER    Number of conformations in this cluster = 8
USER  
USER    RMSD from reference structure       = 13.584 A
USER  
USER    Estimated Free Energy of Binding    =  -11.49 kcal/mol  [=(1)+(2)+(3)-(4)]
USER    Estimated Inhibition Constant, Ki   =    3.77 nM (nanomolar)  [Temperature = 298.15 K]
USER    
USER    (1) Final Intermolecular Energy     =  -14.18 kcal/mol
USER        vdW + Hbond + desolv Energy     =  -14.18 kcal/mol
USER        Electrostatic Energy            =   +0.00 kcal/mol
USER    (2) Final Total Internal Energy     =   -1.60 kcal/mol
USER    (3) Torsional Free Energy           =   +2.68 kcal/mol
USER    (4) Unbound System's Energy  [=(2)] =   -1.60 kcal/mol
USER    
USER    
USER  
USER    DPF = ligand_dock.biased.dpf
USER    NEWDPF move	ligand.pdbqt
USER    NEWDPF about	1.619000 0.086000 0.013000
USER    NEWDPF tran0	20.192486 -6.889607 -3.545489
USER    NEWDPF axisangle0	-0.714691 0.040100 0.698290 108.724769
USER    NEWDPF quaternion0	-0.580842 0.032590 0.567513 0.582657
USER    NEWDPF dihe0	178.40 177.99 68.99 -58.89 144.41 131.87 -19.34 130.59 179.89 
USER  
USER                              x       y       z    vdW   Elec        q     RMS 
ATOM      1  C   UNL     1      21.752  -5.535  -4.759 -0.17 -0.00    +0.000    13.584
ATOM      2  C   UNL     1      21.149  -4.640  -3.714 -0.18 -0.00    +0.000    13.584
ATOM      3  C   UNL     1      19.794  -4.282  -3.775 -0.15 -0.00    +0.000    13.584
ATOM      4  C   UNL     1      19.242  -3.434  -2.809 -0.14 -0.00    +0.000    13.584
ATOM      5  C   UNL     1      20.043  -2.922  -1.779 -0.21 -0.00    +0.000    13.584
ATOM      6  C   UNL     1      19.500  -2.062  -0.811 -0.19 -0.00    +0.000    13.584
ATOM      7  C   UNL     1      20.312  -1.524   0.199 -0.24 -0.00    +0.000    13.584
ATOM      8  C   UNL     1      21.668  -1.886   0.260 -0.34 -0.00    +0.000    13.584
ATOM      9  C   UNL     1      22.216  -2.747  -0.695 -0.29 +0.00    +0.000    13.584
ATOM     10  C   UNL     1      21.414  -3.267  -1.720 -0.26 -0.00    +0.000    13.584
ATOM     11  C   UNL     1      21.958  -4.125  -2.688 -0.24 -0.00    +0.000    13.584
ATOM     12  C   UNL     1      19.719  -0.610   1.242 -0.27 -0.00    +0.000    13.584
ATOM     13  N   UNL     1      19.312  -1.371   2.443 -0.41 -0.00    +0.000    13.584
ATOM     14  H   UNL     1      19.344  -2.335   2.108 -0.02 -0.00    +0.000    13.584
ATOM     15  C   UNL     1      20.291  -1.331   3.550 -0.69 -0.00    +0.000    13.584
ATOM     16  C   UNL     1      21.010  -2.662   3.785 -0.73 -0.00    +0.000    13.584
ATOM     17  C   UNL     1      17.889  -1.263   2.856 -0.42 -0.00    +0.000    13.584
ATOM     18  C   UNL     1      17.231  -2.590   3.260 -0.50 -0.00    +0.000    13.584
ATOM     19  O   UNL     1      21.274  -6.863  -4.571 -0.23 -0.00    +0.000    13.584
ATOM     20  O   UNL     1      22.110  -7.108  -2.435 -0.31 -0.00    +0.000    13.584
ATOM     21  C   UNL     1      21.332  -7.521  -3.339 -0.39 -0.00    +0.000    13.584
ATOM     22  N   UNL     1      20.533  -8.694  -3.138 -0.36 -0.00    +0.000    13.584
ATOM     23  H   UNL     1      20.033  -9.048  -3.910 -0.00 -0.00    +0.000    13.584
ATOM     24  C   UNL     1      20.412  -9.389  -1.886 -0.39 -0.00    +0.000    13.584
ATOM     25  C   UNL     1      21.306  -9.095  -0.847 -0.53 -0.00    +0.000    13.584
ATOM     26  C   UNL     1      21.228  -9.773   0.372 -0.51 -0.00    +0.000    13.584
ATOM     27  C   UNL     1      20.263 -10.778   0.569 -0.60 -0.00    +0.000    13.584
ATOM     28  C   UNL     1      19.371 -11.076  -0.477 -0.46 -0.00    +0.000    13.584
ATOM     29  C   UNL     1      19.452 -10.396  -1.695 -0.37 -0.00    +0.000    13.584
ATOM     30  C   UNL     1      20.166 -11.512   1.856 -0.77 -0.00    +0.000    13.584
ATOM     31  N   UNL     1      20.183 -10.824   3.112 -0.70 -0.00    +0.000    13.584
ATOM     32  O   UNL     1      19.990 -11.505   4.264 -1.06 -0.00    +0.000    13.584
ATOM     33  O   UNL     1      20.079 -12.770   1.849 -1.54 -0.00    +0.000    13.584
ATOM     34  H   UNL     1      20.338  -9.852   3.136 -0.51 -0.00    +0.000    13.584
TER
ENDMDL
MODEL       28
USER    Run = 28
USER    Cluster Rank = 3
USER    Number of conformations in this cluster = 15
USER  
USER    RMSD from reference structure       = 14.990 A
USER  
USER    Estimated Free Energy of Binding    =  -11.43 kcal/mol  [=(1)+(2)+(3)-(4)]
USER    Estimated Inhibition Constant, Ki   =    4.15 nM (nanomolar)  [Temperature = 298.15 K]
USER    
USER    (1) Final Intermolecular Energy     =  -14.12 kcal/mol
USER        vdW + Hbond + desolv Energy     =  -14.12 kcal/mol
USER        Electrostatic Energy            =   +0.00 kcal/mol
USER    (2) Final Total Internal Energy     =   -2.18 kcal/mol
USER    (3) Torsional Free Energy           =   +2.68 kcal/mol
USER    (4) Unbound System's Energy  [=(2)] =   -2.18 kcal/mol
USER    
USER    
USER  
USER    DPF = ligand_dock.biased.dpf
USER    NEWDPF move	ligand.pdbqt
USER    NEWDPF about	1.619000 0.086000 0.013000
USER    NEWDPF tran0	20.015410 -10.986957 -4.917737
USER    NEWDPF axisangle0	0.645985 0.760681 0.063784 -30.228607
USER    NEWDPF quaternion0	0.168438 0.198344 0.016631 -0.965408
USER    NEWDPF dihe0	168.37 180.00 68.58 -151.48 146.94 -104.24 75.99 -164.15 129.29 
USER  
USER                              x       y       z    vdW   Elec        q     RMS 
ATOM      1  C   UNL     1      19.422 -10.511  -7.189 -0.30 -0.00    +0.000    14.990
ATOM      2  C   UNL     1      18.127 -10.637  -6.440 -0.29 -0.00    +0.000    14.990
ATOM      3  C   UNL     1      17.205 -11.642  -6.770 -0.33 -0.00    +0.000    14.990
ATOM      4  C   UNL     1      15.993 -11.744  -6.081 -0.19 -0.00    +0.000    14.990
ATOM      5  C   UNL     1      15.681 -10.833  -5.062 -0.22 -0.00    +0.000    14.990
ATOM      6  C   UNL     1      14.462 -10.922  -4.372 -0.25 -0.00    +0.000    14.990
ATOM      7  C   UNL     1      14.138  -9.987  -3.375 -0.21 -0.00    +0.000    14.990
ATOM      8  C   UNL     1      15.063  -8.984  -3.044 -0.18 -0.00    +0.000    14.990
ATOM      9  C   UNL     1      16.283  -8.892  -3.721 -0.15 -0.00    +0.000    14.990
ATOM     10  C   UNL     1      16.599  -9.808  -4.734 -0.19 -0.00    +0.000    14.990
ATOM     11  C   UNL     1      17.818  -9.718  -5.425 -0.19 -0.00    +0.000    14.990
ATOM     12  C   UNL     1      12.832 -10.096  -2.631 -0.23 -0.00    +0.000    14.990
ATOM     13  N   UNL     1      13.011 -10.814  -1.350 -0.29 -0.00    +0.000    14.990
ATOM     14  H   UNL     1      12.582 -11.718  -1.549 -0.02 +0.00    +0.000    14.990
ATOM     15  C   UNL     1      14.417 -11.134  -1.022 -0.35 +0.00    +0.000    14.990
ATOM     16  C   UNL     1      14.690 -12.633  -0.883 -0.46 +0.00    +0.000    14.990
ATOM     17  C   UNL     1      12.185 -10.356  -0.203 -0.27 +0.00    +0.000    14.990
ATOM     18  C   UNL     1      11.597 -11.481   0.659 -0.41 +0.00    +0.000    14.990
ATOM     19  O   UNL     1      20.506 -10.599  -6.271 -0.34 -0.00    +0.000    14.990
ATOM     20  O   UNL     1      20.229 -12.282  -4.719 -0.72 -0.00    +0.000    14.990
ATOM     21  C   UNL     1      20.351 -11.049  -4.957 -0.49 -0.00    +0.000    14.990
ATOM     22  N   UNL     1      20.284 -10.088  -3.895 -0.36 -0.00    +0.000    14.990
ATOM     23  H   UNL     1      20.264  -9.134  -4.138 +0.00 -0.00    +0.000    14.990
ATOM     24  C   UNL     1      20.247 -10.424  -2.498 -0.45 -0.00    +0.000    14.990
ATOM     25  C   UNL     1      21.355 -10.130  -1.689 -0.54 -0.00    +0.000    14.990
ATOM     26  C   UNL     1      21.356 -10.469  -0.334 -0.63 -0.00    +0.000    14.990
ATOM     27  C   UNL     1      20.254 -11.133   0.237 -0.57 -0.00    +0.000    14.990
ATOM     28  C   UNL     1      19.147 -11.433  -0.578 -0.43 -0.00    +0.000    14.990
ATOM     29  C   UNL     1      19.148 -11.092  -1.933 -0.35 -0.00    +0.000    14.990
ATOM     30  C   UNL     1      20.238 -11.504   1.674 -0.77 -0.00    +0.000    14.990
ATOM     31  N   UNL     1      20.632 -10.576   2.691 -0.62 -0.00    +0.000    14.990
ATOM     32  O   UNL     1      20.509 -10.905   3.997 -1.10 -0.00    +0.000    14.990
ATOM     33  O   UNL     1      19.883 -12.667   2.012 -1.65 -0.00    +0.000    14.990
ATOM     34  H   UNL     1      20.993  -9.696   2.437 -0.57 -0.00    +0.000    14.990
TER
ENDMDL
MODEL        6
USER    Run = 6
USER    Cluster Rank = 4
USER    Number of conformations in this cluster = 4
USER  
USER    RMSD from reference structure       = 14.755 A
USER  
USER    Estimated Free Energy of Binding    =  -11.40 kcal/mol  [=(1)+(2)+(3)-(4)]
USER    Estimated Inhibition Constant, Ki   =    4.41 nM (nanomolar)  [Temperature = 298.15 K]
USER    
USER    (1) Final Intermolecular Energy     =  -14.08 kcal/mol
USER        vdW + Hbond + desolv Energy     =  -14.08 kcal/mol
USER        Electrostatic Energy            =   +0.00 kcal/mol
USER    (2) Final Total Internal Energy     =   -2.04 kcal/mol
USER    (3) Torsional Free Energy           =   +2.68 kcal/mol
USER    (4) Unbound System's Energy  [=(2)] =   -2.04 kcal/mol
USER    
USER    
USER  
USER    DPF = ligand_dock.biased.dpf
USER    NEWDPF move	ligand.pdbqt
USER    NEWDPF about	1.619000 0.086000 0.013000
USER    NEWDPF tran0	20.037925 -9.566785 -5.083983
USER    NEWDPF axisangle0	-0.687280 0.195437 0.699607 109.536933
USER    NEWDPF quaternion0	-0.561389 0.159638 0.571459 0.576882
USER    NEWDPF dihe0	-138.28 -149.41 65.43 97.97 -81.66 -151.11 -102.27 121.73 148.43 
USER  
USER                              x       y       z    vdW   Elec        q     RMS 
ATOM      1  C   UNL     1      21.925  -8.683  -6.266 -0.23 -0.00    +0.000    14.755
ATOM      2  C   UNL     1      21.372  -7.545  -5.456 -0.18 -0.00    +0.000    14.755
ATOM      3  C   UNL     1      20.527  -6.594  -6.045 -0.08 -0.00    +0.000    14.755
ATOM      4  C   UNL     1      20.029  -5.526  -5.291 -0.10 -0.00    +0.000    14.755
ATOM      5  C   UNL     1      20.384  -5.389  -3.941 -0.19 -0.00    +0.000    14.755
ATOM      6  C   UNL     1      19.897  -4.316  -3.179 -0.18 -0.00    +0.000    14.755
ATOM      7  C   UNL     1      20.282  -4.163  -1.837 -0.31 -0.00    +0.000    14.755
ATOM      8  C   UNL     1      21.126  -5.119  -1.249 -0.33 +0.00    +0.000    14.755
ATOM      9  C   UNL     1      21.609  -6.196  -1.998 -0.39 -0.00    +0.000    14.755
ATOM     10  C   UNL     1      21.248  -6.338  -3.345 -0.31 -0.00    +0.000    14.755
ATOM     11  C   UNL     1      21.736  -7.411  -4.107 -0.25 -0.00    +0.000    14.755
ATOM     12  C   UNL     1      19.746  -3.014  -1.022 -0.30 -0.00    +0.000    14.755
ATOM     13  N   UNL     1      20.834  -2.333  -0.286 -0.30 -0.00    +0.000    14.755
ATOM     14  H   UNL     1      20.545  -1.355  -0.335 +0.00 -0.00    +0.000    14.755
ATOM     15  C   UNL     1      20.873  -2.637   1.160 -0.50 +0.00    +0.000    14.755
ATOM     16  C   UNL     1      19.662  -2.110   1.933 -0.50 -0.00    +0.000    14.755
ATOM     17  C   UNL     1      22.159  -2.271  -0.955 -0.28 -0.00    +0.000    14.755
ATOM     18  C   UNL     1      23.176  -1.338  -0.284 -0.29 -0.00    +0.000    14.755
ATOM     19  O   UNL     1      21.213  -9.874  -5.948 -0.29 -0.00    +0.000    14.755
ATOM     20  O   UNL     1      21.910 -11.398  -4.362 -0.55 -0.00    +0.000    14.755
ATOM     21  C   UNL     1      21.178 -10.414  -4.659 -0.47 -0.00    +0.000    14.755
ATOM     22  N   UNL     1      20.266  -9.864  -3.699 -0.35 -0.00    +0.000    14.755
ATOM     23  H   UNL     1      19.631  -9.177  -4.008 -0.00 -0.00    +0.000    14.755
ATOM     24  C   UNL     1      20.218 -10.247  -2.314 -0.45 -0.00    +0.000    14.755
ATOM     25  C   UNL     1      21.325  -9.995  -1.492 -0.56 -0.00    +0.000    14.755
ATOM     26  C   UNL     1      21.315 -10.380  -0.149 -0.63 -0.00    +0.000    14.755
ATOM     27  C   UNL     1      20.202 -11.047   0.395 -0.59 -0.00    +0.000    14.755
ATOM     28  C   UNL     1      19.095 -11.305  -0.434 -0.45 -0.00    +0.000    14.755
ATOM     29  C   UNL     1      19.107 -10.918  -1.777 -0.39 -0.00    +0.000    14.755
ATOM     30  C   UNL     1      20.174 -11.467   1.819 -0.76 -0.00    +0.000    14.755
ATOM     31  N   UNL     1      20.638 -10.602   2.862 -0.63 -0.00    +0.000    14.755
ATOM     32  O   UNL     1      20.505 -10.968   4.157 -1.02 -0.00    +0.000    14.755
ATOM     33  O   UNL     1      19.746 -12.615   2.120 -1.62 -0.00    +0.000    14.755
ATOM     34  H   UNL     1      21.054  -9.740   2.635 -0.59 -0.00    +0.000    14.755
TER
ENDMDL
MODEL       35
USER    Run = 35
USER    Cluster Rank = 5
USER    Number of conformations in this cluster = 7
USER  
USER    RMSD from reference structure       = 14.676 A
USER  
USER    Estimated Free Energy of Binding    =  -11.19 kcal/mol  [=(1)+(2)+(3)-(4)]
USER    Estimated Inhibition Constant, Ki   =    6.26 nM (nanomolar)  [Temperature = 298.15 K]
USER    
USER    (1) Final Intermolecular Energy     =  -13.88 kcal/mol
USER        vdW + Hbond + desolv Energy     =  -13.88 kcal/mol
USER        Electrostatic Energy            =   +0.00 kcal/mol
USER    (2) Final Total Internal Energy     =   -2.18 kcal/mol
USER    (3) Torsional Free Energy           =   +2.68 kcal/mol
USER    (4) Unbound System's Energy  [=(2)] =   -2.18 kcal/mol
USER    
USER    
USER  
USER    DPF = ligand_dock.biased.dpf
USER    NEWDPF move	ligand.pdbqt
USER    NEWDPF about	1.619000 0.086000 0.013000
USER    NEWDPF tran0	19.908512 -11.481592 1.381837
USER    NEWDPF axisangle0	-0.958216 0.124388 -0.257584 -177.605163
USER    NEWDPF quaternion0	-0.958007 0.124361 -0.257528 -0.020897
USER    NEWDPF dihe0	-89.67 -68.36 -41.56 113.60 139.74 -179.41 -97.39 -171.91 124.24 
USER  
USER                              x       y       z    vdW   Elec        q     RMS 
ATOM      1  C   UNL     1      19.112 -11.199   3.623 -0.50 -0.00    +0.000    14.676
ATOM      2  C   UNL     1      17.941 -10.915   2.728 -0.46 +0.00    +0.000    14.676
ATOM      3  C   UNL     1      17.272  -9.684   2.795 -0.37 +0.00    +0.000    14.676
ATOM      4  C   UNL     1      16.170  -9.431   1.971 -0.28 +0.00    +0.000    14.676
ATOM      5  C   UNL     1      15.715 -10.413   1.080 -0.29 +0.00    +0.000    14.676
ATOM      6  C   UNL     1      14.604 -10.171   0.257 -0.23 +0.00    +0.000    14.676
ATOM      7  C   UNL     1      14.130 -11.169  -0.609 -0.31 +0.00    +0.000    14.676
ATOM      8  C   UNL     1      14.802 -12.400  -0.677 -0.44 +0.00    +0.000    14.676
ATOM      9  C   UNL     1      15.914 -12.647   0.134 -0.48 +0.00    +0.000    14.676
ATOM     10  C   UNL     1      16.376 -11.662   1.019 -0.40 +0.00    +0.000    14.676
ATOM     11  C   UNL     1      17.485 -11.904   1.842 -0.15 +0.00    +0.000    14.676
ATOM     12  C   UNL     1      12.943 -10.898  -1.499 -0.28 -0.00    +0.000    14.676
ATOM     13  N   UNL     1      13.371 -10.318  -2.790 -0.24 -0.00    +0.000    14.676
ATOM     14  H   UNL     1      12.574 -10.527  -3.393 -0.02 -0.00    +0.000    14.676
ATOM     15  C   UNL     1      13.462  -8.842  -2.794 -0.17 -0.00    +0.000    14.676
ATOM     16  C   UNL     1      12.711  -8.176  -1.639 -0.13 -0.00    +0.000    14.676
ATOM     17  C   UNL     1      14.463 -11.019  -3.512 -0.31 -0.00    +0.000    14.676
ATOM     18  C   UNL     1      15.800 -10.265  -3.549 -0.25 -0.00    +0.000    14.676
ATOM     19  O   UNL     1      20.211 -11.640   2.833 -1.69 -0.00    +0.000    14.676
ATOM     20  O   UNL     1      19.888 -12.710   0.815 -0.96 -0.00    +0.000    14.676
ATOM     21  C   UNL     1      20.182 -11.651   1.436 -0.76 -0.00    +0.000    14.676
ATOM     22  N   UNL     1      20.537 -10.458   0.723 -0.61 -0.00    +0.000    14.676
ATOM     23  H   UNL     1      20.874  -9.694   1.244 -0.38 -0.00    +0.000    14.676
ATOM     24  C   UNL     1      20.432 -10.304  -0.702 -0.55 -0.00    +0.000    14.676
ATOM     25  C   UNL     1      19.371 -10.917  -1.385 -0.41 -0.00    +0.000    14.676
ATOM     26  C   UNL     1      19.260 -10.805  -2.773 -0.37 -0.00    +0.000    14.676
ATOM     27  C   UNL     1      20.223 -10.094  -3.512 -0.39 -0.00    +0.000    14.676
ATOM     28  C   UNL     1      21.290  -9.486  -2.826 -0.45 -0.00    +0.000    14.676
ATOM     29  C   UNL     1      21.399  -9.598  -1.437 -0.53 -0.00    +0.000    14.676
ATOM     30  C   UNL     1      20.124  -9.966  -4.988 -0.33 -0.00    +0.000    14.676
ATOM     31  N   UNL     1      20.208 -11.111  -5.844 -0.38 -0.00    +0.000    14.676
ATOM     32  O   UNL     1      20.011 -10.979  -7.176 -0.33 -0.00    +0.000    14.676
ATOM     33  O   UNL     1      19.976  -8.824  -5.504 -0.18 -0.00    +0.000    14.676
ATOM     34  H   UNL     1      20.410 -11.995  -5.462 -0.26 -0.00    +0.000    14.676
TER
ENDMDL
MODEL       66
USER    Run = 66
USER    Cluster Rank = 6
USER    Number of conformations in this cluster = 9
USER  
USER    RMSD from reference structure       = 15.991 A
USER  
USER    Estimated Free Energy of Binding    =  -11.18 kcal/mol  [=(1)+(2)+(3)-(4)]
USER    Estimated Inhibition Constant, Ki   =    6.41 nM (nanomolar)  [Temperature = 298.15 K]
USER    
USER    (1) Final Intermolecular Energy     =  -13.86 kcal/mol
USER        vdW + Hbond + desolv Energy     =  -13.86 kcal/mol
USER        Electrostatic Energy            =   +0.00 kcal/mol
USER    (2) Final Total Internal Energy     =   -1.65 kcal/mol
USER    (3) Torsional Free Energy           =   +2.68 kcal/mol
USER    (4) Unbound System's Energy  [=(2)] =   -1.65 kcal/mol
USER    
USER    
USER  
USER    DPF = ligand_dock.biased.dpf
USER    NEWDPF move	ligand.pdbqt
USER    NEWDPF about	1.619000 0.086000 0.013000
USER    NEWDPF tran0	20.027957 -12.209971 -0.365842
USER    NEWDPF axisangle0	-0.523977 0.732887 -0.433964 130.517899
USER    NEWDPF quaternion0	-0.475880 0.665614 -0.394130 0.418518
USER    NEWDPF dihe0	-86.08 -145.46 -26.86 3.36 179.58 169.69 -106.90 83.83 69.11 
USER  
USER                              x       y       z    vdW   Elec        q     RMS 
ATOM      1  C   UNL     1      20.699 -10.230   0.804 -0.63 -0.00    +0.000    15.991
ATOM      2  C   UNL     1      20.876  -9.929  -0.656 -0.59 -0.00    +0.000    15.991
ATOM      3  C   UNL     1      21.394  -8.694  -1.073 -0.44 -0.00    +0.000    15.991
ATOM      4  C   UNL     1      21.541  -8.412  -2.435 -0.36 -0.00    +0.000    15.991
ATOM      5  C   UNL     1      21.157  -9.356  -3.397 -0.41 -0.00    +0.000    15.991
ATOM      6  C   UNL     1      21.291  -9.077  -4.766 -0.30 -0.00    +0.000    15.991
ATOM      7  C   UNL     1      20.873 -10.012  -5.727 -0.29 -0.00    +0.000    15.991
ATOM      8  C   UNL     1      20.357 -11.249  -5.308 -0.44 -0.00    +0.000    15.991
ATOM      9  C   UNL     1      20.227 -11.538  -3.946 -0.24 -0.00    +0.000    15.991
ATOM     10  C   UNL     1      20.619 -10.598  -2.983 -0.45 -0.00    +0.000    15.991
ATOM     11  C   UNL     1      20.484 -10.877  -1.615 -0.36 -0.00    +0.000    15.991
ATOM     12  C   UNL     1      21.031  -9.710  -7.196 -0.23 -0.00    +0.000    15.991
ATOM     13  N   UNL     1      21.719 -10.818  -7.894 -0.28 -0.00    +0.000    15.991
ATOM     14  H   UNL     1      21.202 -11.634  -7.563 -0.44 -0.00    +0.000    15.991
ATOM     15  C   UNL     1      21.526 -10.827  -9.360 -0.21 -0.00    +0.000    15.991
ATOM     16  C   UNL     1      20.398  -9.909  -9.838 -0.14 -0.00    +0.000    15.991
ATOM     17  C   UNL     1      23.093 -11.149  -7.437 -0.44 -0.00    +0.000    15.991
ATOM     18  C   UNL     1      23.699 -12.408  -8.072 -0.47 -0.00    +0.000    15.991
ATOM     19  O   UNL     1      20.095 -11.511   0.950 -1.13 -0.00    +0.000    15.991
ATOM     20  O   UNL     1      18.301 -12.015   2.309 -0.52 +0.00    +0.000    15.991
ATOM     21  C   UNL     1      18.725 -11.683   1.168 -0.60 -0.00    +0.000    15.991
ATOM     22  N   UNL     1      17.820 -11.521   0.068 -0.42 -0.00    +0.000    15.991
ATOM     23  H   UNL     1      18.204 -11.379  -0.828 -0.01 -0.00    +0.000    15.991
ATOM     24  C   UNL     1      16.387 -11.552   0.185 -0.37 +0.00    +0.000    15.991
ATOM     25  C   UNL     1      15.791 -11.230   1.413 -0.36 +0.00    +0.000    15.991
ATOM     26  C   UNL     1      14.402 -11.277   1.563 -0.37 +0.00    +0.000    15.991
ATOM     27  C   UNL     1      13.581 -11.670   0.489 -0.38 +0.00    +0.000    15.991
ATOM     28  C   UNL     1      14.183 -11.998  -0.739 -0.38 +0.00    +0.000    15.991
ATOM     29  C   UNL     1      15.572 -11.950  -0.887 -0.34 +0.00    +0.000    15.991
ATOM     30  C   UNL     1      12.104 -11.728   0.629 -0.39 +0.00    +0.000    15.991
ATOM     31  N   UNL     1      11.485 -12.397   1.734 -0.43 +0.00    +0.000    15.991
ATOM     32  O   UNL     1      10.142 -12.347   1.892 -0.49 +0.00    +0.000    15.991
ATOM     33  O   UNL     1      11.375 -11.190  -0.248 -0.34 +0.00    +0.000    15.991
ATOM     34  H   UNL     1      12.037 -12.894   2.378 -0.61 +0.00    +0.000    15.991
TER
ENDMDL
MODEL       10
USER    Run = 10
USER    Cluster Rank = 7
USER    Number of conformations in this cluster = 6
USER  
USER    RMSD from reference structure       = 19.963 A
USER  
USER    Estimated Free Energy of Binding    =  -11.00 kcal/mol  [=(1)+(2)+(3)-(4)]
USER    Estimated Inhibition Constant, Ki   =    8.69 nM (nanomolar)  [Temperature = 298.15 K]
USER    
USER    (1) Final Intermolecular Energy     =  -13.68 kcal/mol
USER        vdW + Hbond + desolv Energy     =  -13.68 kcal/mol
USER        Electrostatic Energy            =   +0.00 kcal/mol
USER    (2) Final Total Internal Energy     =   -1.60 kcal/mol
USER    (3) Torsional Free Energy           =   +2.68 kcal/mol
USER    (4) Unbound System's Energy  [=(2)] =   -1.60 kcal/mol
USER    
USER    
USER  
USER    DPF = ligand_dock.biased.dpf
USER    NEWDPF move	ligand.pdbqt
USER    NEWDPF about	1.619000 0.086000 0.013000
USER    NEWDPF tran0	23.077826 -9.807948 -5.985323
USER    NEWDPF axisangle0	0.553372 0.085101 0.828576 -145.093487
USER    NEWDPF quaternion0	0.527896 0.081183 0.790430 -0.299928
USER    NEWDPF dihe0	-114.95 160.49 66.74 -1.56 168.20 -96.51 66.40 79.45 68.37 
USER  
USER                              x       y       z    vdW   Elec        q     RMS 
ATOM      1  C   UNL     1      21.038  -8.903  -6.857 -0.17 -0.00    +0.000    19.963
ATOM      2  C   UNL     1      21.560  -9.839  -7.909 -0.19 -0.00    +0.000    19.963
ATOM      3  C   UNL     1      20.874 -10.005  -9.121 -0.16 -0.00    +0.000    19.963
ATOM      4  C   UNL     1      21.353 -10.891 -10.090 -0.09 -0.00    +0.000    19.963
ATOM      5  C   UNL     1      22.518 -11.635  -9.853 -0.23 -0.00    +0.000    19.963
ATOM      6  C   UNL     1      23.002 -12.534 -10.816 -0.23 -0.00    +0.000    19.963
ATOM      7  C   UNL     1      24.149 -13.302 -10.560 -0.30 -0.00    +0.000    19.963
ATOM      8  C   UNL     1      24.836 -13.132  -9.347 -0.24 -0.00    +0.000    19.963
ATOM      9  C   UNL     1      24.366 -12.233  -8.385 -0.42 -0.00    +0.000    19.963
ATOM     10  C   UNL     1      23.206 -11.483  -8.626 -0.32 -0.00    +0.000    19.963
ATOM     11  C   UNL     1      22.723 -10.585  -7.662 -0.29 -0.00    +0.000    19.963
ATOM     12  C   UNL     1      24.669 -14.257 -11.604 -0.29 -0.00    +0.000    19.963
ATOM     13  N   UNL     1      26.023 -13.867 -12.052 -0.17 -0.00    +0.000    19.963
ATOM     14  H   UNL     1      26.483 -13.637 -11.170 -0.56 -0.00    +0.000    19.963
ATOM     15  C   UNL     1      26.824 -14.978 -12.609 -0.24 -0.00    +0.000    19.963
ATOM     16  C   UNL     1      26.717 -16.277 -11.806 -0.38 -0.00    +0.000    19.963
ATOM     17  C   UNL     1      26.144 -12.577 -12.779 -0.13 -0.00    +0.000    19.963
ATOM     18  C   UNL     1      27.044 -11.536 -12.099 -0.17 -0.00    +0.000    19.963
ATOM     19  O   UNL     1      21.866  -8.987  -5.702 -0.29 -0.00    +0.000    19.963
ATOM     20  O   UNL     1      21.399 -10.951  -4.587 -0.53 -0.00    +0.000    19.963
ATOM     21  C   UNL     1      21.496  -9.694  -4.554 -0.41 -0.00    +0.000    19.963
ATOM     22  N   UNL     1      21.183  -8.966  -3.359 -0.40 -0.00    +0.000    19.963
ATOM     23  H   UNL     1      21.157  -7.983  -3.412 -0.02 -0.00    +0.000    19.963
ATOM     24  C   UNL     1      20.907  -9.576  -2.087 -0.50 -0.00    +0.000    19.963
ATOM     25  C   UNL     1      21.743  -9.299  -0.995 -0.25 -0.00    +0.000    19.963
ATOM     26  C   UNL     1      21.514  -9.899   0.246 -0.50 -0.00    +0.000    19.963
ATOM     27  C   UNL     1      20.453 -10.808   0.414 -0.61 -0.00    +0.000    19.963
ATOM     28  C   UNL     1      19.620 -11.089  -0.684 -0.44 -0.00    +0.000    19.963
ATOM     29  C   UNL     1      19.851 -10.488  -1.924 -0.43 -0.00    +0.000    19.963
ATOM     30  C   UNL     1      20.194 -11.457   1.724 -0.76 -0.00    +0.000    19.963
ATOM     31  N   UNL     1      20.224 -10.712   2.947 -0.68 -0.00    +0.000    19.963
ATOM     32  O   UNL     1      19.884 -11.305   4.113 -1.07 -0.00    +0.000    19.963
ATOM     33  O   UNL     1      19.956 -12.696   1.768 -1.62 -0.00    +0.000    19.963
ATOM     34  H   UNL     1      20.493  -9.766   2.937 -0.57 -0.00    +0.000    19.963
TER
ENDMDL
MODEL       42
USER    Run = 42
USER    Cluster Rank = 8
USER    Number of conformations in this cluster = 2
USER  
USER    RMSD from reference structure       = 12.301 A
USER  
USER    Estimated Free Energy of Binding    =  -10.96 kcal/mol  [=(1)+(2)+(3)-(4)]
USER    Estimated Inhibition Constant, Ki   =    9.28 nM (nanomolar)  [Temperature = 298.15 K]
USER    
USER    (1) Final Intermolecular Energy     =  -13.64 kcal/mol
USER        vdW + Hbond + desolv Energy     =  -13.64 kcal/mol
USER        Electrostatic Energy            =   +0.00 kcal/mol
USER    (2) Final Total Internal Energy     =   -1.47 kcal/mol
USER    (3) Torsional Free Energy           =   +2.68 kcal/mol
USER    (4) Unbound System's Energy  [=(2)] =   -1.47 kcal/mol
USER    
USER    
USER  
USER    DPF = ligand_dock.biased.dpf
USER    NEWDPF move	ligand.pdbqt
USER    NEWDPF about	1.619000 0.086000 0.013000
USER    NEWDPF tran0	16.225526 -8.986277 4.043642
USER    NEWDPF axisangle0	0.398183 0.581620 0.709344 147.583121
USER    NEWDPF quaternion0	0.382356 0.558502 0.681149 0.279133
USER    NEWDPF dihe0	96.40 55.73 -76.55 -87.07 118.77 83.46 79.64 -51.95 127.30 
USER  
USER                              x       y       z    vdW   Elec        q     RMS 
ATOM      1  C   UNL     1      15.274 -11.183   3.967 -0.46 +0.00    +0.000    12.301
ATOM      2  C   UNL     1      16.203 -11.092   2.790 -0.43 +0.00    +0.000    12.301
ATOM      3  C   UNL     1      15.717 -11.247   1.483 -0.36 +0.00    +0.000    12.301
ATOM      4  C   UNL     1      16.588 -11.178   0.391 -0.34 +0.00    +0.000    12.301
ATOM      5  C   UNL     1      17.959 -10.968   0.594 -0.39 -0.00    +0.000    12.301
ATOM      6  C   UNL     1      18.842 -10.907  -0.495 -0.42 -0.00    +0.000    12.301
ATOM      7  C   UNL     1      20.220 -10.731  -0.285 -0.55 -0.00    +0.000    12.301
ATOM      8  C   UNL     1      20.704 -10.572   1.023 -0.59 -0.00    +0.000    12.301
ATOM      9  C   UNL     1      19.830 -10.623   2.114 -0.59 -0.00    +0.000    12.301
ATOM     10  C   UNL     1      18.458 -10.825   1.911 -0.48 -0.00    +0.000    12.301
ATOM     11  C   UNL     1      17.575 -10.887   3.000 -0.42 +0.00    +0.000    12.301
ATOM     12  C   UNL     1      21.160 -10.655  -1.461 -0.55 -0.00    +0.000    12.301
ATOM     13  N   UNL     1      20.932  -9.421  -2.244 -0.49 -0.00    +0.000    12.301
ATOM     14  H   UNL     1      19.913  -9.367  -2.265 -0.01 -0.00    +0.000    12.301
ATOM     15  C   UNL     1      21.355  -8.180  -1.562 -0.48 -0.00    +0.000    12.301
ATOM     16  C   UNL     1      21.373  -6.951  -2.474 -0.46 -0.00    +0.000    12.301
ATOM     17  C   UNL     1      21.242  -9.481  -3.696 -0.45 -0.00    +0.000    12.301
ATOM     18  C   UNL     1      21.434 -10.897  -4.257 -0.53 -0.00    +0.000    12.301
ATOM     19  O   UNL     1      15.389 -10.000   4.749 -0.47 +0.00    +0.000    12.301
ATOM     20  O   UNL     1      13.546  -9.541   6.058 -0.66 +0.00    +0.000    12.301
ATOM     21  C   UNL     1      14.289  -9.209   5.093 -0.47 +0.00    +0.000    12.301
ATOM     22  N   UNL     1      13.992  -8.048   4.305 -0.29 +0.00    +0.000    12.301
ATOM     23  H   UNL     1      14.526  -7.895   3.492 -0.00 +0.00    +0.000    12.301
ATOM     24  C   UNL     1      12.967  -7.092   4.624 -0.23 +0.00    +0.000    12.301
ATOM     25  C   UNL     1      11.629  -7.510   4.679 -0.19 +0.00    +0.000    12.301
ATOM     26  C   UNL     1      10.610  -6.597   4.961 -0.17 +0.00    +0.000    12.301
ATOM     27  C   UNL     1      10.907  -5.238   5.172 -0.24 +0.00    +0.000    12.301
ATOM     28  C   UNL     1      12.249  -4.820   5.110 -0.25 +0.00    +0.000    12.301
ATOM     29  C   UNL     1      13.267  -5.736   4.828 -0.26 +0.00    +0.000    12.301
ATOM     30  C   UNL     1       9.838  -4.252   5.470 -0.40 +0.00    +0.000    12.301
ATOM     31  N   UNL     1       9.296  -3.406   4.450 -0.34 +0.00    +0.000    12.301
ATOM     32  O   UNL     1       8.253  -2.590   4.726 -0.51 +0.00    +0.000    12.301
ATOM     33  O   UNL     1       9.404  -4.144   6.650 -1.09 +0.00    +0.000    12.301
ATOM     34  H   UNL     1       9.685  -3.418   3.546 -0.07 +0.00    +0.000    12.301
TER
ENDMDL
MODEL        8
USER    Run = 8
USER    Cluster Rank = 9
USER    Number of conformations in this cluster = 2
USER  
USER    RMSD from reference structure       = 14.367 A
USER  
USER    Estimated Free Energy of Binding    =  -10.79 kcal/mol  [=(1)+(2)+(3)-(4)]
USER    Estimated Inhibition Constant, Ki   =   12.42 nM (nanomolar)  [Temperature = 298.15 K]
USER    
USER    (1) Final Intermolecular Energy     =  -13.47 kcal/mol
USER        vdW + Hbond + desolv Energy     =  -13.47 kcal/mol
USER        Electrostatic Energy            =   +0.00 kcal/mol
USER    (2) Final Total Internal Energy     =   -1.70 kcal/mol
USER    (3) Torsional Free Energy           =   +2.68 kcal/mol
USER    (4) Unbound System's Energy  [=(2)] =   -1.70 kcal/mol
USER    
USER    
USER  
USER    DPF = ligand_dock.biased.dpf
USER    NEWDPF move	ligand.pdbqt
USER    NEWDPF about	1.619000 0.086000 0.013000
USER    NEWDPF tran0	18.559779 -11.669937 0.813570
USER    NEWDPF axisangle0	0.342099 -0.930458 -0.131208 -101.176432
USER    NEWDPF quaternion0	0.264306 -0.718875 -0.101372 -0.634889
USER    NEWDPF dihe0	-137.17 -70.03 177.34 163.37 171.48 11.75 -28.18 95.66 28.73 
USER  
USER                              x       y       z    vdW   Elec        q     RMS 
ATOM      1  C   UNL     1      20.889 -11.680   1.371 -0.67 -0.00    +0.000    14.367
ATOM      2  C   UNL     1      20.770 -10.887   0.101 -0.60 -0.00    +0.000    14.367
ATOM      3  C   UNL     1      21.558  -9.745  -0.104 -0.57 -0.00    +0.000    14.367
ATOM      4  C   UNL     1      21.430  -8.999  -1.281 -0.47 -0.00    +0.000    14.367
ATOM      5  C   UNL     1      20.501  -9.379  -2.260 -0.42 -0.00    +0.000    14.367
ATOM      6  C   UNL     1      20.360  -8.632  -3.439 -0.32 -0.00    +0.000    14.367
ATOM      7  C   UNL     1      19.405  -8.995  -4.402 -0.22 -0.00    +0.000    14.367
ATOM      8  C   UNL     1      18.619 -10.141  -4.196 -0.28 -0.00    +0.000    14.367
ATOM      9  C   UNL     1      18.759 -10.897  -3.028 -0.26 -0.00    +0.000    14.367
ATOM     10  C   UNL     1      19.693 -10.522  -2.052 -0.42 -0.00    +0.000    14.367
ATOM     11  C   UNL     1      19.834 -11.269  -0.873 -0.30 -0.00    +0.000    14.367
ATOM     12  C   UNL     1      19.266  -8.194  -5.672 -0.15 -0.00    +0.000    14.367
ATOM     13  N   UNL     1      19.506  -9.039  -6.861 -0.12 -0.00    +0.000    14.367
ATOM     14  H   UNL     1      19.864  -8.363  -7.537 +0.00 -0.00    +0.000    14.367
ATOM     15  C   UNL     1      20.602 -10.019  -6.701 -0.27 -0.00    +0.000    14.367
ATOM     16  C   UNL     1      21.980  -9.377  -6.523 -0.27 -0.00    +0.000    14.367
ATOM     17  C   UNL     1      18.307  -9.546  -7.577 -0.17 -0.00    +0.000    14.367
ATOM     18  C   UNL     1      18.087 -11.062  -7.474 -0.33 -0.00    +0.000    14.367
ATOM     19  O   UNL     1      19.588 -12.025   1.833 -1.64 -0.00    +0.000    14.367
ATOM     20  O   UNL     1      19.392 -10.351   3.408 -0.66 -0.00    +0.000    14.367
ATOM     21  C   UNL     1      18.825 -11.181   2.645 -0.61 -0.00    +0.000    14.367
ATOM     22  N   UNL     1      17.396 -11.307   2.631 -0.40 +0.00    +0.000    14.367
ATOM     23  H   UNL     1      17.004 -12.046   2.112 -0.01 +0.00    +0.000    14.367
ATOM     24  C   UNL     1      16.498 -10.424   3.324 -0.43 +0.00    +0.000    14.367
ATOM     25  C   UNL     1      15.454 -10.966   4.088 -0.47 +0.00    +0.000    14.367
ATOM     26  C   UNL     1      14.550 -10.132   4.750 -0.33 +0.00    +0.000    14.367
ATOM     27  C   UNL     1      14.660  -8.733   4.644 -0.34 +0.00    +0.000    14.367
ATOM     28  C   UNL     1      15.704  -8.192   3.872 -0.28 +0.00    +0.000    14.367
ATOM     29  C   UNL     1      16.607  -9.029   3.210 -0.25 +0.00    +0.000    14.367
ATOM     30  C   UNL     1      13.708  -7.829   5.338 -0.43 +0.00    +0.000    14.367
ATOM     31  N   UNL     1      14.071  -6.489   5.688 -0.43 +0.00    +0.000    14.367
ATOM     32  O   UNL     1      13.152  -5.655   6.226 -0.93 +0.00    +0.000    14.367
ATOM     33  O   UNL     1      12.559  -8.252   5.640 -0.41 +0.00    +0.000    14.367
ATOM     34  H   UNL     1      14.991  -6.175   5.537 -0.03 +0.00    +0.000    14.367
TER
ENDMDL
MODEL        4
USER    Run = 4
USER    Cluster Rank = 10
USER    Number of conformations in this cluster = 8
USER  
USER    RMSD from reference structure       = 15.164 A
USER  
USER    Estimated Free Energy of Binding    =  -10.75 kcal/mol  [=(1)+(2)+(3)-(4)]
USER    Estimated Inhibition Constant, Ki   =   13.24 nM (nanomolar)  [Temperature = 298.15 K]
USER    
USER    (1) Final Intermolecular Energy     =  -13.43 kcal/mol
USER        vdW + Hbond + desolv Energy     =  -13.43 kcal/mol
USER        Electrostatic Energy            =   +0.00 kcal/mol
USER    (2) Final Total Internal Energy     =   -1.75 kcal/mol
USER    (3) Torsional Free Energy           =   +2.68 kcal/mol
USER    (4) Unbound System's Energy  [=(2)] =   -1.75 kcal/mol
USER    
USER    
USER  
USER    DPF = ligand_dock.biased.dpf
USER    NEWDPF move	ligand.pdbqt
USER    NEWDPF about	1.619000 0.086000 0.013000
USER    NEWDPF tran0	19.905641 -9.536789 0.621554
USER    NEWDPF axisangle0	0.982836 0.181677 0.032029 124.832736
USER    NEWDPF quaternion0	0.871123 0.161027 0.028389 0.463043
USER    NEWDPF dihe0	-177.80 66.17 -167.26 -92.94 -55.10 5.67 -54.27 109.26 -39.63 
USER  
USER                              x       y       z    vdW   Elec        q     RMS 
ATOM      1  C   UNL     1      20.378 -11.191   2.289 -0.74 -0.00    +0.000    15.164
ATOM      2  C   UNL     1      18.977 -11.462   1.820 -0.56 -0.00    +0.000    15.164
ATOM      3  C   UNL     1      18.744 -12.032   0.560 -0.52 -0.00    +0.000    15.164
ATOM      4  C   UNL     1      17.437 -12.267   0.121 -0.46 +0.00    +0.000    15.164
ATOM      5  C   UNL     1      16.347 -11.920   0.931 -0.42 +0.00    +0.000    15.164
ATOM      6  C   UNL     1      15.032 -12.143   0.495 -0.43 +0.00    +0.000    15.164
ATOM      7  C   UNL     1      13.942 -11.762   1.294 -0.40 +0.00    +0.000    15.164
ATOM      8  C   UNL     1      14.178 -11.195   2.557 -0.39 +0.00    +0.000    15.164
ATOM      9  C   UNL     1      15.485 -10.976   3.003 -0.45 +0.00    +0.000    15.164
ATOM     10  C   UNL     1      16.576 -11.331   2.197 -0.38 +0.00    +0.000    15.164
ATOM     11  C   UNL     1      17.890 -11.107   2.634 -0.41 +0.00    +0.000    15.164
ATOM     12  C   UNL     1      12.533 -12.016   0.823 -0.37 +0.00    +0.000    15.164
ATOM     13  N   UNL     1      11.884 -10.758   0.391 -0.29 +0.00    +0.000    15.164
ATOM     14  H   UNL     1      12.100 -10.129   1.165 +0.00 +0.00    +0.000    15.164
ATOM     15  C   UNL     1      12.512 -10.124  -0.789 -0.25 +0.00    +0.000    15.164
ATOM     16  C   UNL     1      13.338  -8.880  -0.452 -0.17 -0.00    +0.000    15.164
ATOM     17  C   UNL     1      10.399 -10.729   0.407 -0.29 +0.00    +0.000    15.164
ATOM     18  C   UNL     1       9.745 -11.717   1.383 -0.41 +0.00    +0.000    15.164
ATOM     19  O   UNL     1      20.943 -10.148   1.501 -0.64 -0.00    +0.000    15.164
ATOM     20  O   UNL     1      22.129 -11.268  -0.130 -0.57 -0.00    +0.000    15.164
ATOM     21  C   UNL     1      21.338 -10.332   0.173 -0.66 -0.00    +0.000    15.164
ATOM     22  N   UNL     1      20.871  -9.415  -0.826 -0.58 -0.00    +0.000    15.164
ATOM     23  H   UNL     1      20.353  -8.633  -0.526 -0.04 -0.00    +0.000    15.164
ATOM     24  C   UNL     1      21.106  -9.564  -2.236 -0.50 -0.00    +0.000    15.164
ATOM     25  C   UNL     1      21.421  -8.434  -3.004 -0.38 -0.00    +0.000    15.164
ATOM     26  C   UNL     1      21.629  -8.545  -4.381 -0.27 -0.00    +0.000    15.164
ATOM     27  C   UNL     1      21.502  -9.790  -5.024 -0.34 -0.00    +0.000    15.164
ATOM     28  C   UNL     1      21.178 -10.921  -4.253 -0.46 -0.00    +0.000    15.164
ATOM     29  C   UNL     1      20.972 -10.808  -2.875 -0.38 -0.00    +0.000    15.164
ATOM     30  C   UNL     1      21.716  -9.928  -6.487 -0.32 -0.00    +0.000    15.164
ATOM     31  N   UNL     1      21.788 -11.214  -7.113 -0.32 -0.00    +0.000    15.164
ATOM     32  O   UNL     1      21.880 -11.311  -8.459 -0.33 -0.00    +0.000    15.164
ATOM     33  O   UNL     1      21.850  -8.893  -7.196 -0.17 -0.00    +0.000    15.164
ATOM     34  H   UNL     1      21.772 -12.029  -6.562 -0.53 -0.00    +0.000    15.164
TER
ENDMDL
MODEL        1
USER    Run = 1
USER    Cluster Rank = 11
USER    Number of conformations in this cluster = 2
USER  
USER    RMSD from reference structure       = 14.836 A
USER  
USER    Estimated Free Energy of Binding    =  -10.71 kcal/mol  [=(1)+(2)+(3)-(4)]
USER    Estimated Inhibition Constant, Ki   =   14.18 nM (nanomolar)  [Temperature = 298.15 K]
USER    
USER    (1) Final Intermolecular Energy     =  -13.39 kcal/mol
USER        vdW + Hbond + desolv Energy     =  -13.39 kcal/mol
USER        Electrostatic Energy            =   +0.00 kcal/mol
USER    (2) Final Total Internal Energy     =   -1.84 kcal/mol
USER    (3) Torsional Free Energy           =   +2.68 kcal/mol
USER    (4) Unbound System's Energy  [=(2)] =   -1.84 kcal/mol
USER    
USER    
USER  
USER    DPF = ligand_dock.biased.dpf
USER    NEWDPF move	ligand.pdbqt
USER    NEWDPF about	1.619000 0.086000 0.013000
USER    NEWDPF tran0	18.250442 -10.304877 2.750882
USER    NEWDPF axisangle0	-0.196960 -0.947841 -0.250607 -87.345041
USER    NEWDPF quaternion0	-0.136008 -0.654518 -0.173053 -0.723298
USER    NEWDPF dihe0	-168.17 135.19 27.99 153.45 -6.67 -103.88 -78.02 -152.81 170.91 
USER  
USER                              x       y       z    vdW   Elec        q     RMS 
ATOM      1  C   UNL     1      20.251 -11.618   2.848 -0.68 -0.00    +0.000    14.836
ATOM      2  C   UNL     1      19.997 -11.356   1.391 -0.65 -0.00    +0.000    14.836
ATOM      3  C   UNL     1      18.999 -12.059   0.702 -0.54 -0.00    +0.000    14.836
ATOM      4  C   UNL     1      18.778 -11.824  -0.659 -0.39 -0.00    +0.000    14.836
ATOM      5  C   UNL     1      19.564 -10.892  -1.351 -0.42 -0.00    +0.000    14.836
ATOM      6  C   UNL     1      19.356 -10.656  -2.718 -0.38 -0.00    +0.000    14.836
ATOM      7  C   UNL     1      20.168  -9.747  -3.416 -0.37 -0.00    +0.000    14.836
ATOM      8  C   UNL     1      21.164  -9.041  -2.724 -0.44 -0.00    +0.000    14.836
ATOM      9  C   UNL     1      21.374  -9.264  -1.359 -0.52 -0.00    +0.000    14.836
ATOM     10  C   UNL     1      20.583 -10.189  -0.665 -0.57 -0.00    +0.000    14.836
ATOM     11  C   UNL     1      20.792 -10.425   0.703 -0.59 -0.00    +0.000    14.836
ATOM     12  C   UNL     1      19.930  -9.491  -4.882 -0.28 -0.00    +0.000    14.836
ATOM     13  N   UNL     1      20.022 -10.745  -5.661 -0.34 -0.00    +0.000    14.836
ATOM     14  H   UNL     1      20.165 -10.399  -6.610 -0.01 -0.00    +0.000    14.836
ATOM     15  C   UNL     1      21.227 -11.552  -5.376 -0.53 -0.00    +0.000    14.836
ATOM     16  C   UNL     1      22.375 -11.314  -6.359 -0.48 -0.00    +0.000    14.836
ATOM     17  C   UNL     1      18.767 -11.523  -5.830 -0.35 -0.00    +0.000    14.836
ATOM     18  C   UNL     1      17.987 -11.218  -7.116 -0.37 -0.00    +0.000    14.836
ATOM     19  O   UNL     1      19.298 -10.904   3.627 -0.75 -0.00    +0.000    14.836
ATOM     20  O   UNL     1      17.934  -9.549   2.351 -0.50 -0.00    +0.000    14.836
ATOM     21  C   UNL     1      18.043 -10.533   3.134 -0.42 +0.00    +0.000    14.836
ATOM     22  N   UNL     1      16.883 -11.255   3.569 -0.39 +0.00    +0.000    14.836
ATOM     23  H   UNL     1      17.002 -11.937   4.270 -0.08 +0.00    +0.000    14.836
ATOM     24  C   UNL     1      15.559 -11.052   3.048 -0.46 +0.00    +0.000    14.836
ATOM     25  C   UNL     1      14.965 -12.056   2.269 -0.44 +0.00    +0.000    14.836
ATOM     26  C   UNL     1      13.689 -11.874   1.728 -0.34 +0.00    +0.000    14.836
ATOM     27  C   UNL     1      12.990 -10.671   1.938 -0.28 +0.00    +0.000    14.836
ATOM     28  C   UNL     1      13.591  -9.664   2.713 -0.24 +0.00    +0.000    14.836
ATOM     29  C   UNL     1      14.867  -9.848   3.254 -0.36 +0.00    +0.000    14.836
ATOM     30  C   UNL     1      11.635 -10.458   1.369 -0.28 +0.00    +0.000    14.836
ATOM     31  N   UNL     1      10.937 -11.507   0.689 -0.39 +0.00    +0.000    14.836
ATOM     32  O   UNL     1       9.664 -11.318   0.272 -0.34 +0.00    +0.000    14.836
ATOM     33  O   UNL     1      11.088  -9.326   1.474 -0.15 +0.00    +0.000    14.836
ATOM     34  H   UNL     1      11.385 -12.367   0.523 -0.07 +0.00    +0.000    14.836
TER
ENDMDL
MODEL       22
USER    Run = 22
USER    Cluster Rank = 12
USER    Number of conformations in this cluster = 9
USER  
USER    RMSD from reference structure       = 16.006 A
USER  
USER    Estimated Free Energy of Binding    =  -10.52 kcal/mol  [=(1)+(2)+(3)-(4)]
USER    Estimated Inhibition Constant, Ki   =   19.44 nM (nanomolar)  [Temperature = 298.15 K]
USER    
USER    (1) Final Intermolecular Energy     =  -13.20 kcal/mol
USER        vdW + Hbond + desolv Energy     =  -13.20 kcal/mol
USER        Electrostatic Energy            =   +0.00 kcal/mol
USER    (2) Final Total Internal Energy     =   -1.90 kcal/mol
USER    (3) Torsional Free Energy           =   +2.68 kcal/mol
USER    (4) Unbound System's Energy  [=(2)] =   -1.90 kcal/mol
USER    
USER    
USER  
USER    DPF = ligand_dock.biased.dpf
USER    NEWDPF move	ligand.pdbqt
USER    NEWDPF about	1.619000 0.086000 0.013000
USER    NEWDPF tran0	20.693482 -11.140335 -5.944273
USER    NEWDPF axisangle0	-0.913039 -0.150745 -0.378993 99.278216
USER    NEWDPF quaternion0	-0.695718 -0.114865 -0.288785 0.647600
USER    NEWDPF dihe0	175.16 65.40 -99.50 -107.65 -64.62 17.07 162.28 107.08 -179.01 
USER  
USER                              x       y       z    vdW   Elec        q     RMS 
ATOM      1  C   UNL     1      19.760  -8.947  -6.182 -0.16 -0.00    +0.000    16.006
ATOM      2  C   UNL     1      18.644  -9.907  -6.475 -0.20 -0.00    +0.000    16.006
ATOM      3  C   UNL     1      18.694 -10.739  -7.604 -0.27 -0.00    +0.000    16.006
ATOM      4  C   UNL     1      17.644 -11.619  -7.883 -0.10 -0.00    +0.000    16.006
ATOM      5  C   UNL     1      16.522 -11.667  -7.043 -0.33 -0.00    +0.000    16.006
ATOM      6  C   UNL     1      15.458 -12.540  -7.320 -0.31 -0.00    +0.000    16.006
ATOM      7  C   UNL     1      14.321 -12.561  -6.496 -0.32 -0.00    +0.000    16.006
ATOM      8  C   UNL     1      14.274 -11.730  -5.365 -0.26 -0.00    +0.000    16.006
ATOM      9  C   UNL     1      15.332 -10.863  -5.077 -0.23 -0.00    +0.000    16.006
ATOM     10  C   UNL     1      16.458 -10.820  -5.912 -0.25 -0.00    +0.000    16.006
ATOM     11  C   UNL     1      17.520  -9.947  -5.634 -0.20 -0.00    +0.000    16.006
ATOM     12  C   UNL     1      13.188 -13.509  -6.795 -0.39 -0.00    +0.000    16.006
ATOM     13  N   UNL     1      11.955 -12.770  -7.143 -0.20 -0.00    +0.000    16.006
ATOM     14  H   UNL     1      11.766 -12.252  -6.284 -0.01 -0.00    +0.000    16.006
ATOM     15  C   UNL     1      12.143 -11.725  -8.173 -0.13 -0.00    +0.000    16.006
ATOM     16  C   UNL     1      11.954 -10.301  -7.646 -0.08 -0.00    +0.000    16.006
ATOM     17  C   UNL     1      10.709 -13.567  -7.273 -0.19 -0.00    +0.000    16.006
ATOM     18  C   UNL     1      10.709 -14.895  -6.503 -0.28 -0.00    +0.000    16.006
ATOM     19  O   UNL     1      20.908  -9.676  -5.761 -0.27 -0.00    +0.000    16.006
ATOM     20  O   UNL     1      21.886 -11.136  -4.267 -0.58 -0.00    +0.000    16.006
ATOM     21  C   UNL     1      21.016 -10.250  -4.491 -0.46 -0.00    +0.000    16.006
ATOM     22  N   UNL     1      20.096  -9.850  -3.466 -0.35 -0.00    +0.000    16.006
ATOM     23  H   UNL     1      19.361  -9.246  -3.718 -0.00 -0.00    +0.000    16.006
ATOM     24  C   UNL     1      20.177 -10.273  -2.094 -0.45 -0.00    +0.000    16.006
ATOM     25  C   UNL     1      19.047 -10.831  -1.479 -0.39 -0.00    +0.000    16.006
ATOM     26  C   UNL     1      19.089 -11.226  -0.139 -0.47 -0.00    +0.000    16.006
ATOM     27  C   UNL     1      20.261 -11.050   0.621 -0.61 -0.00    +0.000    16.006
ATOM     28  C   UNL     1      21.391 -10.483   0.003 -0.60 -0.00    +0.000    16.006
ATOM     29  C   UNL     1      21.346 -10.089  -1.337 -0.57 -0.00    +0.000    16.006
ATOM     30  C   UNL     1      20.325 -11.460   2.046 -0.77 -0.00    +0.000    16.006
ATOM     31  N   UNL     1      20.640 -10.522   3.081 -0.64 -0.00    +0.000    16.006
ATOM     32  O   UNL     1      20.590 -10.899   4.379 -0.92 -0.00    +0.000    16.006
ATOM     33  O   UNL     1      20.111 -12.665   2.356 -1.62 -0.00    +0.000    16.006
ATOM     34  H   UNL     1      20.894  -9.601   2.846 -0.59 -0.00    +0.000    16.006
TER
ENDMDL
MODEL       98
USER    Run = 98
USER    Cluster Rank = 13
USER    Number of conformations in this cluster = 1
USER  
USER    RMSD from reference structure       = 11.147 A
USER  
USER    Estimated Free Energy of Binding    =  -10.42 kcal/mol  [=(1)+(2)+(3)-(4)]
USER    Estimated Inhibition Constant, Ki   =   23.10 nM (nanomolar)  [Temperature = 298.15 K]
USER    
USER    (1) Final Intermolecular Energy     =  -13.10 kcal/mol
USER        vdW + Hbond + desolv Energy     =  -13.10 kcal/mol
USER        Electrostatic Energy            =   +0.00 kcal/mol
USER    (2) Final Total Internal Energy     =   -1.71 kcal/mol
USER    (3) Torsional Free Energy           =   +2.68 kcal/mol
USER    (4) Unbound System's Energy  [=(2)] =   -1.71 kcal/mol
USER    
USER    
USER  
USER    DPF = ligand_dock.biased.dpf
USER    NEWDPF move	ligand.pdbqt
USER    NEWDPF about	1.619000 0.086000 0.013000
USER    NEWDPF tran0	13.745416 -9.324754 2.436872
USER    NEWDPF axisangle0	0.384115 -0.857590 0.342046 147.556735
USER    NEWDPF quaternion0	0.368822 -0.823448 0.328429 0.279354
USER    NEWDPF dihe0	-9.50 164.81 -85.91 59.05 166.53 26.11 98.14 -121.97 168.25 
USER  
USER                              x       y       z    vdW   Elec        q     RMS 
ATOM      1  C   UNL     1      12.031  -8.989   4.076 -0.17 +0.00    +0.000    11.147
ATOM      2  C   UNL     1      12.976  -7.831   4.221 -0.21 +0.00    +0.000    11.147
ATOM      3  C   UNL     1      14.192  -7.982   4.904 -0.37 +0.00    +0.000    11.147
ATOM      4  C   UNL     1      15.060  -6.896   5.051 -0.40 +0.00    +0.000    11.147
ATOM      5  C   UNL     1      14.716  -5.640   4.529 -0.36 +0.00    +0.000    11.147
ATOM      6  C   UNL     1      15.577  -4.543   4.680 -0.42 -0.00    +0.000    11.147
ATOM      7  C   UNL     1      15.213  -3.279   4.187 -0.39 -0.00    +0.000    11.147
ATOM      8  C   UNL     1      13.997  -3.131   3.500 -0.29 -0.00    +0.000    11.147
ATOM      9  C   UNL     1      13.137  -4.221   3.338 -0.18 +0.00    +0.000    11.147
ATOM     10  C   UNL     1      13.484  -5.478   3.852 -0.19 +0.00    +0.000    11.147
ATOM     11  C   UNL     1      12.623  -6.576   3.701 -0.13 +0.00    +0.000    11.147
ATOM     12  C   UNL     1      16.149  -2.107   4.343 -0.28 -0.00    +0.000    11.147
ATOM     13  N   UNL     1      16.613  -1.621   3.026 -0.39 -0.00    +0.000    11.147
ATOM     14  H   UNL     1      16.061  -0.771   2.905 -0.49 -0.00    +0.000    11.147
ATOM     15  C   UNL     1      18.017  -1.156   3.009 -0.35 -0.00    +0.000    11.147
ATOM     16  C   UNL     1      19.033  -2.254   3.335 -0.58 -0.00    +0.000    11.147
ATOM     17  C   UNL     1      16.194  -2.403   1.835 -0.29 -0.00    +0.000    11.147
ATOM     18  C   UNL     1      15.433  -1.600   0.771 -0.22 -0.00    +0.000    11.147
ATOM     19  O   UNL     1      12.426  -9.781   2.961 -0.26 +0.00    +0.000    11.147
ATOM     20  O   UNL     1      13.913 -11.535   3.143 -0.36 +0.00    +0.000    11.147
ATOM     21  C   UNL     1      13.707 -10.328   2.837 -0.34 +0.00    +0.000    11.147
ATOM     22  N   UNL     1      14.784  -9.487   2.404 -0.27 +0.00    +0.000    11.147
ATOM     23  H   UNL     1      14.601  -8.526   2.291 -0.00 +0.00    +0.000    11.147
ATOM     24  C   UNL     1      16.114  -9.954   2.122 -0.34 +0.00    +0.000    11.147
ATOM     25  C   UNL     1      17.191  -9.455   2.869 -0.33 +0.00    +0.000    11.147
ATOM     26  C   UNL     1      18.497  -9.872   2.599 -0.44 -0.00    +0.000    11.147
ATOM     27  C   UNL     1      18.755 -10.782   1.557 -0.49 -0.00    +0.000    11.147
ATOM     28  C   UNL     1      17.674 -11.276   0.805 -0.41 -0.00    +0.000    11.147
ATOM     29  C   UNL     1      16.368 -10.858   1.078 -0.33 +0.00    +0.000    11.147
ATOM     30  C   UNL     1      20.136 -11.235   1.253 -0.72 -0.00    +0.000    11.147
ATOM     31  N   UNL     1      20.823 -10.798   0.075 -0.63 -0.00    +0.000    11.147
ATOM     32  O   UNL     1      22.116 -11.142  -0.126 -0.61 -0.00    +0.000    11.147
ATOM     33  O   UNL     1      20.716 -12.033   2.039 -1.83 -0.00    +0.000    11.147
ATOM     34  H   UNL     1      20.353 -10.246  -0.590 -0.02 -0.00    +0.000    11.147
TER
ENDMDL
MODEL       82
USER    Run = 82
USER    Cluster Rank = 14
USER    Number of conformations in this cluster = 1
USER  
USER    RMSD from reference structure       = 12.824 A
USER  
USER    Estimated Free Energy of Binding    =  -10.23 kcal/mol  [=(1)+(2)+(3)-(4)]
USER    Estimated Inhibition Constant, Ki   =   31.72 nM (nanomolar)  [Temperature = 298.15 K]
USER    
USER    (1) Final Intermolecular Energy     =  -12.91 kcal/mol
USER        vdW + Hbond + desolv Energy     =  -12.91 kcal/mol
USER        Electrostatic Energy            =   +0.00 kcal/mol
USER    (2) Final Total Internal Energy     =   -1.86 kcal/mol
USER    (3) Torsional Free Energy           =   +2.68 kcal/mol
USER    (4) Unbound System's Energy  [=(2)] =   -1.86 kcal/mol
USER    
USER    
USER  
USER    DPF = ligand_dock.biased.dpf
USER    NEWDPF move	ligand.pdbqt
USER    NEWDPF about	1.619000 0.086000 0.013000
USER    NEWDPF tran0	13.917778 -10.617649 1.048233
USER    NEWDPF axisangle0	0.021427 0.936446 0.350157 144.422860
USER    NEWDPF quaternion0	0.020403 0.891675 0.333416 0.305505
USER    NEWDPF dihe0	97.03 82.25 6.51 -61.33 94.36 85.67 146.31 120.20 -163.08 
USER  
USER                              x       y       z    vdW   Elec        q     RMS 
ATOM      1  C   UNL     1      14.795 -12.355   2.445 -0.33 +0.00    +0.000    12.824
ATOM      2  C   UNL     1      15.926 -11.928   1.554 -0.40 +0.00    +0.000    12.824
ATOM      3  C   UNL     1      15.746 -11.836   0.166 -0.39 +0.00    +0.000    12.824
ATOM      4  C   UNL     1      16.808 -11.454  -0.661 -0.32 +0.00    +0.000    12.824
ATOM      5  C   UNL     1      18.067 -11.175  -0.111 -0.40 -0.00    +0.000    12.824
ATOM      6  C   UNL     1      19.140 -10.801  -0.934 -0.41 -0.00    +0.000    12.824
ATOM      7  C   UNL     1      20.408 -10.555  -0.383 -0.57 -0.00    +0.000    12.824
ATOM      8  C   UNL     1      20.585 -10.645   1.007 -0.61 -0.00    +0.000    12.824
ATOM      9  C   UNL     1      19.519 -11.009   1.836 -0.60 -0.00    +0.000    12.824
ATOM     10  C   UNL     1      18.258 -11.280   1.287 -0.46 -0.00    +0.000    12.824
ATOM     11  C   UNL     1      17.186 -11.655   2.110 -0.24 +0.00    +0.000    12.824
ATOM     12  C   UNL     1      21.553 -10.143  -1.273 -0.57 -0.00    +0.000    12.824
ATOM     13  N   UNL     1      21.119  -9.131  -2.261 -0.49 -0.00    +0.000    12.824
ATOM     14  H   UNL     1      20.102  -9.216  -2.222 -0.01 -0.00    +0.000    12.824
ATOM     15  C   UNL     1      21.389  -7.734  -1.859 -0.47 -0.00    +0.000    12.824
ATOM     16  C   UNL     1      21.180  -6.718  -2.985 -0.40 -0.00    +0.000    12.824
ATOM     17  C   UNL     1      21.374  -9.437  -3.692 -0.45 -0.00    +0.000    12.824
ATOM     18  C   UNL     1      21.113 -10.894  -4.096 -0.52 -0.00    +0.000    12.824
ATOM     19  O   UNL     1      13.675 -11.506   2.221 -0.47 +0.00    +0.000    12.824
ATOM     20  O   UNL     1      13.030  -9.343   1.744 -0.19 +0.00    +0.000    12.824
ATOM     21  C   UNL     1      13.708 -10.129   2.461 -0.31 +0.00    +0.000    12.824
ATOM     22  N   UNL     1      14.556  -9.625   3.502 -0.34 +0.00    +0.000    12.824
ATOM     23  H   UNL     1      15.155 -10.261   3.956 -0.02 +0.00    +0.000    12.824
ATOM     24  C   UNL     1      14.590  -8.252   3.926 -0.31 +0.00    +0.000    12.824
ATOM     25  C   UNL     1      14.920  -7.253   3.000 -0.25 +0.00    +0.000    12.824
ATOM     26  C   UNL     1      14.985  -5.913   3.391 -0.25 +0.00    +0.000    12.824
ATOM     27  C   UNL     1      14.743  -5.548   4.728 -0.37 +0.00    +0.000    12.824
ATOM     28  C   UNL     1      14.419  -6.552   5.658 -0.38 +0.00    +0.000    12.824
ATOM     29  C   UNL     1      14.353  -7.892   5.263 -0.38 +0.00    +0.000    12.824
ATOM     30  C   UNL     1      14.811  -4.130   5.164 -0.49 +0.00    +0.000    12.824
ATOM     31  N   UNL     1      15.438  -3.128   4.356 -0.42 -0.00    +0.000    12.824
ATOM     32  O   UNL     1      15.395  -1.829   4.728 -0.52 -0.00    +0.000    12.824
ATOM     33  O   UNL     1      14.318  -3.798   6.278 -0.56 +0.00    +0.000    12.824
ATOM     34  H   UNL     1      15.902  -3.387   3.527 -0.01 -0.00    +0.000    12.824
TER
ENDMDL
MODEL       79
USER    Run = 79
USER    Cluster Rank = 15
USER    Number of conformations in this cluster = 2
USER  
USER    RMSD from reference structure       = 10.677 A
USER  
USER    Estimated Free Energy of Binding    =  -10.17 kcal/mol  [=(1)+(2)+(3)-(4)]
USER    Estimated Inhibition Constant, Ki   =   35.30 nM (nanomolar)  [Temperature = 298.15 K]
USER    
USER    (1) Final Intermolecular Energy     =  -12.85 kcal/mol
USER        vdW + Hbond + desolv Energy     =  -12.85 kcal/mol
USER        Electrostatic Energy            =   +0.00 kcal/mol
USER    (2) Final Total Internal Energy     =   -1.94 kcal/mol
USER    (3) Torsional Free Energy           =   +2.68 kcal/mol
USER    (4) Unbound System's Energy  [=(2)] =   -1.94 kcal/mol
USER    
USER    
USER  
USER    DPF = ligand_dock.biased.dpf
USER    NEWDPF move	ligand.pdbqt
USER    NEWDPF about	1.619000 0.086000 0.013000
USER    NEWDPF tran0	16.042031 -3.718495 4.720962
USER    NEWDPF axisangle0	-0.631719 -0.393768 -0.667741 138.737244
USER    NEWDPF quaternion0	-0.591205 -0.368514 -0.624917 0.352354
USER    NEWDPF dihe0	-171.16 -3.52 134.88 -67.36 109.08 81.98 -91.22 -139.24 141.56 
USER  
USER                              x       y       z    vdW   Elec        q     RMS 
ATOM      1  C   UNL     1      13.682  -3.351   4.538 -0.35 -0.00    +0.000    10.677
ATOM      2  C   UNL     1      13.945  -4.688   3.905 -0.24 +0.00    +0.000    10.677
ATOM      3  C   UNL     1      13.917  -4.835   2.510 -0.18 -0.00    +0.000    10.677
ATOM      4  C   UNL     1      14.144  -6.085   1.926 -0.19 +0.00    +0.000    10.677
ATOM      5  C   UNL     1      14.388  -7.207   2.731 -0.23 +0.00    +0.000    10.677
ATOM      6  C   UNL     1      14.608  -8.467   2.154 -0.25 +0.00    +0.000    10.677
ATOM      7  C   UNL     1      14.818  -9.595   2.965 -0.32 +0.00    +0.000    10.677
ATOM      8  C   UNL     1      14.849  -9.444   4.360 -0.37 +0.00    +0.000    10.677
ATOM      9  C   UNL     1      14.638  -8.191   4.944 -0.33 +0.00    +0.000    10.677
ATOM     10  C   UNL     1      14.403  -7.068   4.139 -0.30 +0.00    +0.000    10.677
ATOM     11  C   UNL     1      14.182  -5.808   4.716 -0.32 +0.00    +0.000    10.677
ATOM     12  C   UNL     1      15.065 -10.943   2.337 -0.45 +0.00    +0.000    10.677
ATOM     13  N   UNL     1      16.248 -10.906   1.449 -0.34 +0.00    +0.000    10.677
ATOM     14  H   UNL     1      16.319  -9.911   1.229 -0.01 +0.00    +0.000    10.677
ATOM     15  C   UNL     1      17.524 -11.230   2.122 -0.48 +0.00    +0.000    10.677
ATOM     16  C   UNL     1      18.344  -9.998   2.513 -0.54 -0.00    +0.000    10.677
ATOM     17  C   UNL     1      16.086 -11.485   0.091 -0.41 +0.00    +0.000    10.677
ATOM     18  C   UNL     1      15.363 -12.838   0.049 -0.55 +0.00    +0.000    10.677
ATOM     19  O   UNL     1      14.888  -2.858   5.110 -0.44 -0.00    +0.000    10.677
ATOM     20  O   UNL     1      16.842  -4.032   4.752 -0.41 -0.00    +0.000    10.677
ATOM     21  C   UNL     1      16.136  -3.016   4.500 -0.53 -0.00    +0.000    10.677
ATOM     22  N   UNL     1      16.618  -1.988   3.625 -0.44 -0.00    +0.000    10.677
ATOM     23  H   UNL     1      16.088  -1.161   3.551 -0.55 -0.00    +0.000    10.677
ATOM     24  C   UNL     1      17.823  -2.084   2.847 -0.43 -0.00    +0.000    10.677
ATOM     25  C   UNL     1      19.057  -2.201   3.501 -0.50 -0.00    +0.000    10.677
ATOM     26  C   UNL     1      20.246  -2.270   2.771 -0.62 -0.00    +0.000    10.677
ATOM     27  C   UNL     1      20.225  -2.201   1.365 -0.44 -0.00    +0.000    10.677
ATOM     28  C   UNL     1      18.986  -2.077   0.711 -0.28 -0.00    +0.000    10.677
ATOM     29  C   UNL     1      17.798  -2.009   1.444 -0.28 -0.00    +0.000    10.677
ATOM     30  C   UNL     1      21.478  -2.270   0.571 -0.43 -0.00    +0.000    10.677
ATOM     31  N   UNL     1      21.764  -3.387  -0.277 -0.32 +0.00    +0.000    10.677
ATOM     32  O   UNL     1      22.861  -3.377  -1.068 -0.88 +0.00    +0.000    10.677
ATOM     33  O   UNL     1      22.318  -1.332   0.653 -0.39 -0.00    +0.000    10.677
ATOM     34  H   UNL     1      21.160  -4.164  -0.285 -0.05 +0.00    +0.000    10.677
TER
ENDMDL
MODEL       80
USER    Run = 80
USER    Cluster Rank = 16
USER    Number of conformations in this cluster = 1
USER  
USER    RMSD from reference structure       = 10.779 A
USER  
USER    Estimated Free Energy of Binding    =  -10.08 kcal/mol  [=(1)+(2)+(3)-(4)]
USER    Estimated Inhibition Constant, Ki   =   40.57 nM (nanomolar)  [Temperature = 298.15 K]
USER    
USER    (1) Final Intermolecular Energy     =  -12.77 kcal/mol
USER        vdW + Hbond + desolv Energy     =  -12.77 kcal/mol
USER        Electrostatic Energy            =   +0.00 kcal/mol
USER    (2) Final Total Internal Energy     =   -1.68 kcal/mol
USER    (3) Torsional Free Energy           =   +2.68 kcal/mol
USER    (4) Unbound System's Energy  [=(2)] =   -1.68 kcal/mol
USER    
USER    
USER  
USER    DPF = ligand_dock.biased.dpf
USER    NEWDPF move	ligand.pdbqt
USER    NEWDPF about	1.619000 0.086000 0.013000
USER    NEWDPF tran0	15.579529 -5.809152 5.365704
USER    NEWDPF axisangle0	0.489809 -0.478142 0.729018 -179.039366
USER    NEWDPF quaternion0	0.489791 -0.478125 0.728993 -0.008383
USER    NEWDPF dihe0	-109.31 72.53 84.81 -34.69 -110.72 -91.99 71.61 152.29 2.50 
USER  
USER                              x       y       z    vdW   Elec        q     RMS 
ATOM      1  C   UNL     1      13.894  -4.141   5.701 -0.24 +0.00    +0.000    10.779
ATOM      2  C   UNL     1      14.757  -3.639   4.580 -0.37 -0.00    +0.000    10.779
ATOM      3  C   UNL     1      14.231  -3.478   3.290 -0.26 -0.00    +0.000    10.779
ATOM      4  C   UNL     1      15.043  -3.027   2.244 -0.26 -0.00    +0.000    10.779
ATOM      5  C   UNL     1      16.397  -2.745   2.474 -0.32 -0.00    +0.000    10.779
ATOM      6  C   UNL     1      17.223  -2.301   1.430 -0.18 -0.00    +0.000    10.779
ATOM      7  C   UNL     1      18.586  -2.054   1.656 -0.35 -0.00    +0.000    10.779
ATOM      8  C   UNL     1      19.111  -2.212   2.949 -0.50 -0.00    +0.000    10.779
ATOM      9  C   UNL     1      18.294  -2.646   3.997 -0.23 -0.00    +0.000    10.779
ATOM     10  C   UNL     1      16.938  -2.920   3.770 -0.44 -0.00    +0.000    10.779
ATOM     11  C   UNL     1      16.114  -3.364   4.815 -0.48 -0.00    +0.000    10.779
ATOM     12  C   UNL     1      19.464  -1.566   0.531 -0.28 -0.00    +0.000    10.779
ATOM     13  N   UNL     1      20.893  -1.783   0.842 -0.36 -0.00    +0.000    10.779
ATOM     14  H   UNL     1      20.845  -2.373   1.673 -0.03 -0.00    +0.000    10.779
ATOM     15  C   UNL     1      21.615  -2.604  -0.154 -0.40 +0.00    +0.000    10.779
ATOM     16  C   UNL     1      20.778  -3.745  -0.735 -0.45 +0.00    +0.000    10.779
ATOM     17  C   UNL     1      21.650  -0.617   1.366 -0.34 -0.00    +0.000    10.779
ATOM     18  C   UNL     1      20.819   0.371   2.196 -0.39 -0.00    +0.000    10.779
ATOM     19  O   UNL     1      14.312  -5.452   6.065 -0.94 +0.00    +0.000    10.779
ATOM     20  O   UNL     1      16.067  -6.156   4.743 -0.50 +0.00    +0.000    10.779
ATOM     21  C   UNL     1      14.888  -6.342   5.154 -0.47 +0.00    +0.000    10.779
ATOM     22  N   UNL     1      14.106  -7.439   4.662 -0.32 +0.00    +0.000    10.779
ATOM     23  H   UNL     1      13.155  -7.477   4.918 -0.00 +0.00    +0.000    10.779
ATOM     24  C   UNL     1      14.616  -8.487   3.821 -0.32 +0.00    +0.000    10.779
ATOM     25  C   UNL     1      14.505  -9.820   4.239 -0.39 +0.00    +0.000    10.779
ATOM     26  C   UNL     1      15.016 -10.857   3.454 -0.44 +0.00    +0.000    10.779
ATOM     27  C   UNL     1      15.671 -10.577   2.240 -0.36 +0.00    +0.000    10.779
ATOM     28  C   UNL     1      15.788  -9.237   1.826 -0.27 +0.00    +0.000    10.779
ATOM     29  C   UNL     1      15.275  -8.202   2.613 -0.26 +0.00    +0.000    10.779
ATOM     30  C   UNL     1      16.223 -11.664   1.393 -0.46 +0.00    +0.000    10.779
ATOM     31  N   UNL     1      15.377 -12.663   0.814 -0.47 +0.00    +0.000    10.779
ATOM     32  O   UNL     1      15.891 -13.581  -0.036 -1.13 +0.00    +0.000    10.779
ATOM     33  O   UNL     1      17.467 -11.720   1.186 -0.52 +0.00    +0.000    10.779
ATOM     34  H   UNL     1      14.418 -12.683   1.037 -0.05 +0.00    +0.000    10.779
TER
ENDMDL
MODEL       41
USER    Run = 41
USER    Cluster Rank = 17
USER    Number of conformations in this cluster = 2
USER  
USER    RMSD from reference structure       = 13.828 A
USER  
USER    Estimated Free Energy of Binding    =  -10.05 kcal/mol  [=(1)+(2)+(3)-(4)]
USER    Estimated Inhibition Constant, Ki   =   42.96 nM (nanomolar)  [Temperature = 298.15 K]
USER    
USER    (1) Final Intermolecular Energy     =  -12.73 kcal/mol
USER        vdW + Hbond + desolv Energy     =  -12.73 kcal/mol
USER        Electrostatic Energy            =   +0.00 kcal/mol
USER    (2) Final Total Internal Energy     =   -2.98 kcal/mol
USER    (3) Torsional Free Energy           =   +2.68 kcal/mol
USER    (4) Unbound System's Energy  [=(2)] =   -2.98 kcal/mol
USER    
USER    
USER  
USER    DPF = ligand_dock.biased.dpf
USER    NEWDPF move	ligand.pdbqt
USER    NEWDPF about	1.619000 0.086000 0.013000
USER    NEWDPF tran0	18.318936 -9.282284 -3.877770
USER    NEWDPF axisangle0	0.138967 0.989703 0.034292 -53.008887
USER    NEWDPF quaternion0	0.062017 0.441672 0.015303 -0.894900
USER    NEWDPF dihe0	61.38 180.00 -77.23 148.23 -30.84 -104.62 -119.98 -165.95 -32.18 
USER  
USER                              x       y       z    vdW   Elec        q     RMS 
ATOM      1  C   UNL     1      16.669  -9.348  -5.613 -0.16 -0.00    +0.000    13.828
ATOM      2  C   UNL     1      15.911  -9.404  -4.318 -0.18 -0.00    +0.000    13.828
ATOM      3  C   UNL     1      15.654  -8.233  -3.590 -0.10 -0.00    +0.000    13.828
ATOM      4  C   UNL     1      14.964  -8.292  -2.375 -0.13 -0.00    +0.000    13.828
ATOM      5  C   UNL     1      14.534  -9.526  -1.866 -0.21 -0.00    +0.000    13.828
ATOM      6  C   UNL     1      13.849  -9.596  -0.644 -0.19 -0.00    +0.000    13.828
ATOM      7  C   UNL     1      13.451 -10.837  -0.121 -0.28 +0.00    +0.000    13.828
ATOM      8  C   UNL     1      13.707 -12.008  -0.853 -0.24 +0.00    +0.000    13.828
ATOM      9  C   UNL     1      14.382 -11.947  -2.076 -0.29 -0.00    +0.000    13.828
ATOM     10  C   UNL     1      14.804 -10.712  -2.589 -0.27 -0.00    +0.000    13.828
ATOM     11  C   UNL     1      15.489 -10.643  -3.811 -0.20 -0.00    +0.000    13.828
ATOM     12  C   UNL     1      12.705 -10.903   1.188 -0.36 +0.00    +0.000    13.828
ATOM     13  N   UNL     1      13.638 -10.829   2.334 -0.34 +0.00    +0.000    13.828
ATOM     14  H   UNL     1      13.043 -11.112   3.113 -0.04 +0.00    +0.000    13.828
ATOM     15  C   UNL     1      14.718 -11.838   2.306 -0.50 +0.00    +0.000    13.828
ATOM     16  C   UNL     1      16.106 -11.264   2.603 -0.49 +0.00    +0.000    13.828
ATOM     17  C   UNL     1      14.054  -9.472   2.773 -0.30 +0.00    +0.000    13.828
ATOM     18  C   UNL     1      14.106  -9.275   4.295 -0.40 +0.00    +0.000    13.828
ATOM     19  O   UNL     1      18.053  -9.158  -5.340 -0.17 -0.00    +0.000    13.828
ATOM     20  O   UNL     1      19.163  -8.310  -3.504 -0.17 -0.00    +0.000    13.828
ATOM     21  C   UNL     1      18.597  -9.291  -4.059 -0.25 -0.00    +0.000    13.828
ATOM     22  N   UNL     1      18.541 -10.568  -3.408 -0.31 -0.00    +0.000    13.828
ATOM     23  H   UNL     1      18.197 -11.333  -3.925 -0.00 -0.00    +0.000    13.828
ATOM     24  C   UNL     1      18.954 -10.806  -2.052 -0.36 -0.00    +0.000    13.828
ATOM     25  C   UNL     1      17.986 -11.099  -1.080 -0.33 -0.00    +0.000    13.828
ATOM     26  C   UNL     1      18.356 -11.308   0.251 -0.44 -0.00    +0.000    13.828
ATOM     27  C   UNL     1      19.704 -11.207   0.642 -0.57 -0.00    +0.000    13.828
ATOM     28  C   UNL     1      20.672 -10.907  -0.334 -0.54 -0.00    +0.000    13.828
ATOM     29  C   UNL     1      20.299 -10.698  -1.665 -0.42 -0.00    +0.000    13.828
ATOM     30  C   UNL     1      20.116 -11.424   2.051 -0.76 -0.00    +0.000    13.828
ATOM     31  N   UNL     1      20.364 -10.324   2.935 -0.53 -0.00    +0.000    13.828
ATOM     32  O   UNL     1      20.638 -10.549   4.240 -0.95 -0.00    +0.000    13.828
ATOM     33  O   UNL     1      20.267 -12.600   2.481 -1.72 -0.00    +0.000    13.828
ATOM     34  H   UNL     1      20.335  -9.403   2.590 -0.53 -0.00    +0.000    13.828
TER
ENDMDL
MODEL       38
USER    Run = 38
USER    Cluster Rank = 18
USER    Number of conformations in this cluster = 1
USER  
USER    RMSD from reference structure       = 13.655 A
USER  
USER    Estimated Free Energy of Binding    =   -9.98 kcal/mol  [=(1)+(2)+(3)-(4)]
USER    Estimated Inhibition Constant, Ki   =   48.13 nM (nanomolar)  [Temperature = 298.15 K]
USER    
USER    (1) Final Intermolecular Energy     =  -12.67 kcal/mol
USER        vdW + Hbond + desolv Energy     =  -12.67 kcal/mol
USER        Electrostatic Energy            =   +0.00 kcal/mol
USER    (2) Final Total Internal Energy     =   -1.76 kcal/mol
USER    (3) Torsional Free Energy           =   +2.68 kcal/mol
USER    (4) Unbound System's Energy  [=(2)] =   -1.76 kcal/mol
USER    
USER    
USER  
USER    DPF = ligand_dock.biased.dpf
USER    NEWDPF move	ligand.pdbqt
USER    NEWDPF about	1.619000 0.086000 0.013000
USER    NEWDPF tran0	17.158277 -11.983710 0.058537
USER    NEWDPF axisangle0	0.284466 -0.947329 -0.147126 -136.096622
USER    NEWDPF quaternion0	0.263842 -0.878647 -0.136459 -0.373825
USER    NEWDPF dihe0	-31.84 22.75 119.96 -87.06 -64.42 50.58 162.83 96.24 49.29 
USER  
USER                              x       y       z    vdW   Elec        q     RMS 
ATOM      1  C   UNL     1      18.778 -12.554   1.728 -0.32 -0.00    +0.000    13.655
ATOM      2  C   UNL     1      19.477 -11.635   0.769 -0.58 -0.00    +0.000    13.655
ATOM      3  C   UNL     1      20.668 -10.991   1.136 -0.63 -0.00    +0.000    13.655
ATOM      4  C   UNL     1      21.307 -10.122   0.245 -0.58 -0.00    +0.000    13.655
ATOM      5  C   UNL     1      20.753  -9.874  -1.019 -0.56 -0.00    +0.000    13.655
ATOM      6  C   UNL     1      21.381  -8.996  -1.915 -0.47 -0.00    +0.000    13.655
ATOM      7  C   UNL     1      20.805  -8.725  -3.167 -0.38 -0.00    +0.000    13.655
ATOM      8  C   UNL     1      19.615  -9.373  -3.534 -0.28 -0.00    +0.000    13.655
ATOM      9  C   UNL     1      18.986 -10.255  -2.650 -0.31 -0.00    +0.000    13.655
ATOM     10  C   UNL     1      19.544 -10.509  -1.389 -0.42 -0.00    +0.000    13.655
ATOM     11  C   UNL     1      18.915 -11.387  -0.493 -0.44 -0.00    +0.000    13.655
ATOM     12  C   UNL     1      21.492  -7.789  -4.129 -0.32 -0.00    +0.000    13.655
ATOM     13  N   UNL     1      20.676  -6.578  -4.364 -0.20 -0.00    +0.000    13.655
ATOM     14  H   UNL     1      19.736  -6.966  -4.447 -0.01 -0.00    +0.000    13.655
ATOM     15  C   UNL     1      20.598  -5.661  -3.207 -0.29 -0.00    +0.000    13.655
ATOM     16  C   UNL     1      21.924  -5.502  -2.457 -0.39 -0.00    +0.000    13.655
ATOM     17  C   UNL     1      20.826  -5.914  -5.685 -0.11 -0.00    +0.000    13.655
ATOM     18  C   UNL     1      22.104  -6.283  -6.451 -0.11 -0.00    +0.000    13.655
ATOM     19  O   UNL     1      17.404 -12.651   1.369 -0.86 +0.00    +0.000    13.655
ATOM     20  O   UNL     1      15.318 -11.676   1.234 -0.46 +0.00    +0.000    13.655
ATOM     21  C   UNL     1      16.441 -11.737   1.806 -0.42 +0.00    +0.000    13.655
ATOM     22  N   UNL     1      16.766 -10.844   2.880 -0.45 +0.00    +0.000    13.655
ATOM     23  H   UNL     1      17.692 -10.846   3.216 -0.02 +0.00    +0.000    13.655
ATOM     24  C   UNL     1      15.830  -9.946   3.499 -0.41 +0.00    +0.000    13.655
ATOM     25  C   UNL     1      15.745  -8.621   3.046 -0.31 +0.00    +0.000    13.655
ATOM     26  C   UNL     1      14.863  -7.719   3.646 -0.32 +0.00    +0.000    13.655
ATOM     27  C   UNL     1      14.061  -8.120   4.731 -0.35 +0.00    +0.000    13.655
ATOM     28  C   UNL     1      14.153  -9.447   5.188 -0.41 +0.00    +0.000    13.655
ATOM     29  C   UNL     1      15.036 -10.348   4.585 -0.37 +0.00    +0.000    13.655
ATOM     30  C   UNL     1      13.119  -7.176   5.384 -0.37 +0.00    +0.000    13.655
ATOM     31  N   UNL     1      11.728  -7.155   5.046 -0.23 +0.00    +0.000    13.655
ATOM     32  O   UNL     1      10.874  -6.358   5.729 -0.30 +0.00    +0.000    13.655
ATOM     33  O   UNL     1      13.552  -6.363   6.247 -0.98 +0.00    +0.000    13.655
ATOM     34  H   UNL     1      11.393  -7.722   4.315 +0.00 +0.00    +0.000    13.655
TER
ENDMDL
MODEL       95
USER    Run = 95
USER    Cluster Rank = 19
USER    Number of conformations in this cluster = 3
USER  
USER    RMSD from reference structure       = 14.911 A
USER  
USER    Estimated Free Energy of Binding    =   -9.94 kcal/mol  [=(1)+(2)+(3)-(4)]
USER    Estimated Inhibition Constant, Ki   =   52.07 nM (nanomolar)  [Temperature = 298.15 K]
USER    
USER    (1) Final Intermolecular Energy     =  -12.62 kcal/mol
USER        vdW + Hbond + desolv Energy     =  -12.62 kcal/mol
USER        Electrostatic Energy            =   +0.00 kcal/mol
USER    (2) Final Total Internal Energy     =   -2.18 kcal/mol
USER    (3) Torsional Free Energy           =   +2.68 kcal/mol
USER    (4) Unbound System's Energy  [=(2)] =   -2.18 kcal/mol
USER    
USER    
USER  
USER    DPF = ligand_dock.biased.dpf
USER    NEWDPF move	ligand.pdbqt
USER    NEWDPF about	1.619000 0.086000 0.013000
USER    NEWDPF tran0	14.517566 -9.247232 -1.585644
USER    NEWDPF axisangle0	0.241806 0.085804 0.966523 176.634315
USER    NEWDPF quaternion0	0.241702 0.085767 0.966107 0.029367
USER    NEWDPF dihe0	-179.91 73.09 -53.68 -143.78 124.19 -127.53 92.47 -176.83 -176.76 
USER  
USER                              x       y       z    vdW   Elec        q     RMS 
ATOM      1  C   UNL     1      13.086  -9.354  -3.503 -0.18 -0.00    +0.000    14.911
ATOM      2  C   UNL     1      14.492  -9.382  -4.032 -0.16 -0.00    +0.000    14.911
ATOM      3  C   UNL     1      15.347  -8.286  -3.845 -0.15 -0.00    +0.000    14.911
ATOM      4  C   UNL     1      16.649  -8.309  -4.354 -0.13 -0.00    +0.000    14.911
ATOM      5  C   UNL     1      17.107  -9.424  -5.071 -0.17 -0.00    +0.000    14.911
ATOM      6  C   UNL     1      18.409  -9.452  -5.595 -0.17 -0.00    +0.000    14.911
ATOM      7  C   UNL     1      18.852 -10.555  -6.342 -0.29 -0.00    +0.000    14.911
ATOM      8  C   UNL     1      17.995 -11.652  -6.526 -0.27 -0.00    +0.000    14.911
ATOM      9  C   UNL     1      16.699 -11.636  -6.001 -0.19 -0.00    +0.000    14.911
ATOM     10  C   UNL     1      16.244 -10.526  -5.277 -0.22 -0.00    +0.000    14.911
ATOM     11  C   UNL     1      14.942 -10.498  -4.755 -0.22 -0.00    +0.000    14.911
ATOM     12  C   UNL     1      20.255 -10.582  -6.891 -0.30 -0.00    +0.000    14.911
ATOM     13  N   UNL     1      21.242 -10.815  -5.814 -0.39 -0.00    +0.000    14.911
ATOM     14  H   UNL     1      21.570  -9.869  -5.616 -0.01 -0.00    +0.000    14.911
ATOM     15  C   UNL     1      20.653 -11.277  -4.539 -0.52 -0.00    +0.000    14.911
ATOM     16  C   UNL     1      20.661 -10.216  -3.436 -0.50 -0.00    +0.000    14.911
ATOM     17  C   UNL     1      22.513 -11.481  -6.199 -0.50 -0.00    +0.000    14.911
ATOM     18  C   UNL     1      22.991 -11.180  -7.627 -0.42 -0.00    +0.000    14.911
ATOM     19  O   UNL     1      13.119  -9.396  -2.081 -0.18 -0.00    +0.000    14.911
ATOM     20  O   UNL     1      14.831  -8.359  -0.933 -0.27 -0.00    +0.000    14.911
ATOM     21  C   UNL     1      14.312  -9.430  -1.352 -0.24 -0.00    +0.000    14.911
ATOM     22  N   UNL     1      14.956 -10.692  -1.130 -0.27 +0.00    +0.000    14.911
ATOM     23  H   UNL     1      14.579 -11.486  -1.576 -0.01 +0.00    +0.000    14.911
ATOM     24  C   UNL     1      16.115 -10.876  -0.300 -0.29 +0.00    +0.000    14.911
ATOM     25  C   UNL     1      15.947 -11.109   1.073 -0.34 +0.00    +0.000    14.911
ATOM     26  C   UNL     1      17.056 -11.266   1.908 -0.40 +0.00    +0.000    14.911
ATOM     27  C   UNL     1      18.361 -11.169   1.388 -0.47 -0.00    +0.000    14.911
ATOM     28  C   UNL     1      18.526 -10.928   0.012 -0.41 -0.00    +0.000    14.911
ATOM     29  C   UNL     1      17.415 -10.772  -0.821 -0.29 -0.00    +0.000    14.911
ATOM     30  C   UNL     1      19.552 -11.329   2.260 -0.71 -0.00    +0.000    14.911
ATOM     31  N   UNL     1      19.974 -10.287   3.147 -0.62 -0.00    +0.000    14.911
ATOM     32  O   UNL     1      21.000 -10.498   4.003 -0.89 -0.00    +0.000    14.911
ATOM     33  O   UNL     1      20.218 -12.400   2.211 -1.89 -0.00    +0.000    14.911
ATOM     34  H   UNL     1      19.518  -9.416   3.132 -0.56 -0.00    +0.000    14.911
TER
ENDMDL
MODEL       52
USER    Run = 52
USER    Cluster Rank = 20
USER    Number of conformations in this cluster = 2
USER  
USER    RMSD from reference structure       = 9.714 A
USER  
USER    Estimated Free Energy of Binding    =   -9.87 kcal/mol  [=(1)+(2)+(3)-(4)]
USER    Estimated Inhibition Constant, Ki   =   57.75 nM (nanomolar)  [Temperature = 298.15 K]
USER    
USER    (1) Final Intermolecular Energy     =  -12.56 kcal/mol
USER        vdW + Hbond + desolv Energy     =  -12.56 kcal/mol
USER        Electrostatic Energy            =   +0.00 kcal/mol
USER    (2) Final Total Internal Energy     =   -2.13 kcal/mol
USER    (3) Torsional Free Energy           =   +2.68 kcal/mol
USER    (4) Unbound System's Energy  [=(2)] =   -2.13 kcal/mol
USER    
USER    
USER  
USER    DPF = ligand_dock.biased.dpf
USER    NEWDPF move	ligand.pdbqt
USER    NEWDPF about	1.619000 0.086000 0.013000
USER    NEWDPF tran0	12.817697 -3.402352 3.739911
USER    NEWDPF axisangle0	0.412319 0.808681 0.419557 -164.569828
USER    NEWDPF quaternion0	0.408587 0.801361 0.415759 -0.134247
USER    NEWDPF dihe0	-8.40 128.84 102.16 -15.36 -175.57 174.40 103.35 -178.19 -1.78 
USER  
USER                              x       y       z    vdW   Elec        q     RMS 
ATOM      1  C   UNL     1      11.113  -4.538   4.982 -0.33 +0.00    +0.000     9.714
ATOM      2  C   UNL     1      12.200  -5.549   4.748 -0.21 +0.00    +0.000     9.714
ATOM      3  C   UNL     1      12.979  -6.020   5.815 -0.16 +0.00    +0.000     9.714
ATOM      4  C   UNL     1      14.001  -6.947   5.590 -0.40 +0.00    +0.000     9.714
ATOM      5  C   UNL     1      14.266  -7.404   4.291 -0.31 +0.00    +0.000     9.714
ATOM      6  C   UNL     1      15.296  -8.327   4.054 -0.33 +0.00    +0.000     9.714
ATOM      7  C   UNL     1      15.581  -8.756   2.748 -0.31 +0.00    +0.000     9.714
ATOM      8  C   UNL     1      14.798  -8.286   1.681 -0.24 +0.00    +0.000     9.714
ATOM      9  C   UNL     1      13.765  -7.372   1.909 -0.18 +0.00    +0.000     9.714
ATOM     10  C   UNL     1      13.494  -6.921   3.209 -0.17 +0.00    +0.000     9.714
ATOM     11  C   UNL     1      12.464  -5.997   3.445 -0.10 +0.00    +0.000     9.714
ATOM     12  C   UNL     1      16.682  -9.756   2.503 -0.44 +0.00    +0.000     9.714
ATOM     13  N   UNL     1      16.231 -10.827   1.587 -0.35 +0.00    +0.000     9.714
ATOM     14  H   UNL     1      15.543 -10.341   1.012 +0.00 +0.00    +0.000     9.714
ATOM     15  C   UNL     1      17.261 -11.283   0.629 -0.44 +0.00    +0.000     9.714
ATOM     16  C   UNL     1      18.475 -11.934   1.294 -0.59 -0.00    +0.000     9.714
ATOM     17  C   UNL     1      15.396 -11.906   2.176 -0.49 +0.00    +0.000     9.714
ATOM     18  C   UNL     1      13.889 -11.614   2.201 -0.45 +0.00    +0.000     9.714
ATOM     19  O   UNL     1      11.539  -3.270   4.495 -0.48 +0.00    +0.000     9.714
ATOM     20  O   UNL     1      12.891  -2.940   2.655 -0.65 -0.00    +0.000     9.714
ATOM     21  C   UNL     1      12.791  -3.066   3.907 -0.34 -0.00    +0.000     9.714
ATOM     22  N   UNL     1      13.958  -3.051   4.740 -0.35 -0.00    +0.000     9.714
ATOM     23  H   UNL     1      13.845  -3.272   5.694 -0.54 +0.00    +0.000     9.714
ATOM     24  C   UNL     1      15.281  -2.733   4.277 -0.41 -0.00    +0.000     9.714
ATOM     25  C   UNL     1      15.439  -1.856   3.195 -0.30 -0.00    +0.000     9.714
ATOM     26  C   UNL     1      16.712  -1.550   2.707 -0.34 -0.00    +0.000     9.714
ATOM     27  C   UNL     1      17.856  -2.136   3.281 -0.42 -0.00    +0.000     9.714
ATOM     28  C   UNL     1      17.694  -3.021   4.362 -0.16 -0.00    +0.000     9.714
ATOM     29  C   UNL     1      16.419  -3.325   4.849 -0.46 -0.00    +0.000     9.714
ATOM     30  C   UNL     1      19.217  -1.825   2.776 -0.56 -0.00    +0.000     9.714
ATOM     31  N   UNL     1      19.896  -0.622   3.150 -0.48 -0.00    +0.000     9.714
ATOM     32  O   UNL     1      21.174  -0.412   2.758 -0.53 -0.00    +0.000     9.714
ATOM     33  O   UNL     1      19.786  -2.631   1.989 -0.66 -0.00    +0.000     9.714
ATOM     34  H   UNL     1      19.431   0.055   3.692 -0.40 -0.00    +0.000     9.714
TER
ENDMDL
MODEL       12
USER    Run = 12
USER    Cluster Rank = 21
USER    Number of conformations in this cluster = 1
USER  
USER    RMSD from reference structure       = 17.376 A
USER  
USER    Estimated Free Energy of Binding    =   -9.86 kcal/mol  [=(1)+(2)+(3)-(4)]
USER    Estimated Inhibition Constant, Ki   =   58.80 nM (nanomolar)  [Temperature = 298.15 K]
USER    
USER    (1) Final Intermolecular Energy     =  -12.55 kcal/mol
USER        vdW + Hbond + desolv Energy     =  -12.55 kcal/mol
USER        Electrostatic Energy            =   +0.00 kcal/mol
USER    (2) Final Total Internal Energy     =   -1.36 kcal/mol
USER    (3) Torsional Free Energy           =   +2.68 kcal/mol
USER    (4) Unbound System's Energy  [=(2)] =   -1.36 kcal/mol
USER    
USER    
USER  
USER    DPF = ligand_dock.biased.dpf
USER    NEWDPF move	ligand.pdbqt
USER    NEWDPF about	1.619000 0.086000 0.013000
USER    NEWDPF tran0	18.922389 -10.529348 -2.936478
USER    NEWDPF axisangle0	-0.839005 0.105286 0.533840 -169.142521
USER    NEWDPF quaternion0	-0.835242 0.104814 0.531446 -0.094608
USER    NEWDPF dihe0	162.48 -50.88 3.75 -66.81 175.31 26.34 139.92 20.22 86.12 
USER  
USER                              x       y       z    vdW   Elec        q     RMS 
ATOM      1  C   UNL     1      21.196 -10.875  -2.267 -0.38 -0.00    +0.000    17.376
ATOM      2  C   UNL     1      20.398 -10.796  -0.998 -0.47 -0.00    +0.000    17.376
ATOM      3  C   UNL     1      21.026 -10.521   0.225 -0.63 -0.00    +0.000    17.376
ATOM      4  C   UNL     1      20.281 -10.466   1.408 -0.55 -0.00    +0.000    17.376
ATOM      5  C   UNL     1      18.898 -10.700   1.382 -0.48 -0.00    +0.000    17.376
ATOM      6  C   UNL     1      18.144 -10.656   2.565 -0.48 -0.00    +0.000    17.376
ATOM      7  C   UNL     1      16.766 -10.925   2.540 -0.42 +0.00    +0.000    17.376
ATOM      8  C   UNL     1      16.138 -11.197   1.314 -0.36 +0.00    +0.000    17.376
ATOM      9  C   UNL     1      16.880 -11.235   0.130 -0.35 +0.00    +0.000    17.376
ATOM     10  C   UNL     1      18.261 -10.993   0.153 -0.40 -0.00    +0.000    17.376
ATOM     11  C   UNL     1      19.015 -11.037  -1.029 -0.41 -0.00    +0.000    17.376
ATOM     12  C   UNL     1      15.960 -10.865   3.813 -0.54 +0.00    +0.000    17.376
ATOM     13  N   UNL     1      14.823  -9.929   3.677 -0.39 +0.00    +0.000    17.376
ATOM     14  H   UNL     1      15.128  -9.332   2.907 -0.00 +0.00    +0.000    17.376
ATOM     15  C   UNL     1      13.575 -10.554   3.190 -0.28 +0.00    +0.000    17.376
ATOM     16  C   UNL     1      12.991  -9.877   1.948 -0.24 +0.00    +0.000    17.376
ATOM     17  C   UNL     1      14.646  -8.927   4.759 -0.40 +0.00    +0.000    17.376
ATOM     18  C   UNL     1      13.706  -9.360   5.892 -0.50 +0.00    +0.000    17.376
ATOM     19  O   UNL     1      20.311 -10.838  -3.382 -0.48 -0.00    +0.000    17.376
ATOM     20  O   UNL     1      19.874 -11.895  -5.385 -0.58 -0.00    +0.000    17.376
ATOM     21  C   UNL     1      20.688 -11.256  -4.661 -0.53 -0.00    +0.000    17.376
ATOM     22  N   UNL     1      22.021 -10.990  -5.117 -0.47 -0.00    +0.000    17.376
ATOM     23  H   UNL     1      22.656 -10.596  -4.476 -0.01 -0.00    +0.000    17.376
ATOM     24  C   UNL     1      22.492 -11.260  -6.448 -0.43 -0.00    +0.000    17.376
ATOM     25  C   UNL     1      23.548 -12.164  -6.634 -0.27 -0.00    +0.000    17.376
ATOM     26  C   UNL     1      24.043 -12.425  -7.914 -0.35 -0.00    +0.000    17.376
ATOM     27  C   UNL     1      23.505 -11.766  -9.036 -0.31 -0.00    +0.000    17.376
ATOM     28  C   UNL     1      22.451 -10.855  -8.846 -0.23 -0.00    +0.000    17.376
ATOM     29  C   UNL     1      21.957 -10.596  -7.564 -0.28 -0.00    +0.000    17.376
ATOM     30  C   UNL     1      24.019 -12.028 -10.404 -0.24 -0.00    +0.000    17.376
ATOM     31  N   UNL     1      25.300 -12.631 -10.618 -0.25 -0.00    +0.000    17.376
ATOM     32  O   UNL     1      25.700 -12.952 -11.869 -0.20 -0.00    +0.000    17.376
ATOM     33  O   UNL     1      23.322 -11.701 -11.403 -0.14 -0.00    +0.000    17.376
ATOM     34  H   UNL     1      25.891 -12.811  -9.852 -0.48 -0.00    +0.000    17.376
TER
ENDMDL
MODEL       16
USER    Run = 16
USER    Cluster Rank = 22
USER    Number of conformations in this cluster = 1
USER  
USER    RMSD from reference structure       = 16.567 A
USER  
USER    Estimated Free Energy of Binding    =   -9.81 kcal/mol  [=(1)+(2)+(3)-(4)]
USER    Estimated Inhibition Constant, Ki   =   63.95 nM (nanomolar)  [Temperature = 298.15 K]
USER    
USER    (1) Final Intermolecular Energy     =  -12.50 kcal/mol
USER        vdW + Hbond + desolv Energy     =  -12.50 kcal/mol
USER        Electrostatic Energy            =   +0.00 kcal/mol
USER    (2) Final Total Internal Energy     =   -1.82 kcal/mol
USER    (3) Torsional Free Energy           =   +2.68 kcal/mol
USER    (4) Unbound System's Energy  [=(2)] =   -1.82 kcal/mol
USER    
USER    
USER  
USER    DPF = ligand_dock.biased.dpf
USER    NEWDPF move	ligand.pdbqt
USER    NEWDPF about	1.619000 0.086000 0.013000
USER    NEWDPF tran0	20.819325 -8.650544 -4.365225
USER    NEWDPF axisangle0	0.787909 0.392042 -0.474871 42.168414
USER    NEWDPF quaternion0	0.283442 0.141033 -0.170830 0.933053
USER    NEWDPF dihe0	-98.12 -140.13 152.00 -22.69 -41.29 49.09 -144.49 -125.78 169.80 
USER  
USER                              x       y       z    vdW   Elec        q     RMS 
ATOM      1  C   UNL     1      22.065  -9.890  -5.993 -0.35 -0.00    +0.000    16.567
ATOM      2  C   UNL     1      20.636 -10.328  -6.142 -0.29 -0.00    +0.000    16.567
ATOM      3  C   UNL     1      20.065 -11.225  -5.227 -0.43 -0.00    +0.000    16.567
ATOM      4  C   UNL     1      18.739 -11.644  -5.380 -0.27 -0.00    +0.000    16.567
ATOM      5  C   UNL     1      17.973 -11.182  -6.459 -0.34 -0.00    +0.000    16.567
ATOM      6  C   UNL     1      16.645 -11.604  -6.625 -0.31 -0.00    +0.000    16.567
ATOM      7  C   UNL     1      15.891 -11.166  -7.727 -0.24 -0.00    +0.000    16.567
ATOM      8  C   UNL     1      16.464 -10.265  -8.639 -0.15 -0.00    +0.000    16.567
ATOM      9  C   UNL     1      17.783  -9.833  -8.477 -0.15 -0.00    +0.000    16.567
ATOM     10  C   UNL     1      18.548 -10.288  -7.393 -0.24 -0.00    +0.000    16.567
ATOM     11  C   UNL     1      19.875  -9.866  -7.228 -0.20 -0.00    +0.000    16.567
ATOM     12  C   UNL     1      14.462 -11.615  -7.892 -0.23 -0.00    +0.000    16.567
ATOM     13  N   UNL     1      14.383 -12.836  -8.724 -0.29 -0.00    +0.000    16.567
ATOM     14  H   UNL     1      15.321 -13.225  -8.622 -0.03 +0.00    +0.000    16.567
ATOM     15  C   UNL     1      13.486 -13.881  -8.188 -0.24 +0.00    +0.000    16.567
ATOM     16  C   UNL     1      13.310 -13.821  -6.668 -0.40 -0.00    +0.000    16.567
ATOM     17  C   UNL     1      14.315 -12.641 -10.195 -0.21 -0.00    +0.000    16.567
ATOM     18  C   UNL     1      14.276 -13.938 -11.016 -0.25 +0.00    +0.000    16.567
ATOM     19  O   UNL     1      22.135  -8.833  -5.043 -0.35 -0.00    +0.000    16.567
ATOM     20  O   UNL     1      21.043  -7.917  -3.229 -0.42 -0.00    +0.000    16.567
ATOM     21  C   UNL     1      21.578  -8.927  -3.764 -0.37 -0.00    +0.000    16.567
ATOM     22  N   UNL     1      21.666 -10.170  -3.055 -0.49 -0.00    +0.000    16.567
ATOM     23  H   UNL     1      22.195 -10.895  -3.462 -0.05 -0.00    +0.000    16.567
ATOM     24  C   UNL     1      21.032 -10.430  -1.792 -0.53 -0.00    +0.000    16.567
ATOM     25  C   UNL     1      21.767 -10.273  -0.608 -0.54 -0.00    +0.000    16.567
ATOM     26  C   UNL     1      21.184 -10.544   0.632 -0.45 -0.00    +0.000    16.567
ATOM     27  C   UNL     1      19.855 -11.002   0.712 -0.58 -0.00    +0.000    16.567
ATOM     28  C   UNL     1      19.122 -11.166  -0.477 -0.45 -0.00    +0.000    16.567
ATOM     29  C   UNL     1      19.708 -10.893  -1.717 -0.39 -0.00    +0.000    16.567
ATOM     30  C   UNL     1      19.219 -11.298   2.021 -0.67 -0.00    +0.000    16.567
ATOM     31  N   UNL     1      17.938 -10.760   2.367 -0.47 +0.00    +0.000    16.567
ATOM     32  O   UNL     1      17.335 -11.128   3.520 -0.52 +0.00    +0.000    16.567
ATOM     33  O   UNL     1      19.823 -12.027   2.854 -1.58 -0.00    +0.000    16.567
ATOM     34  H   UNL     1      17.495 -10.121   1.763 -0.01 -0.00    +0.000    16.567
TER
ENDMDL
MODEL       50
USER    Run = 50
USER    Cluster Rank = 23
USER    Number of conformations in this cluster = 1
USER  
USER    RMSD from reference structure       = 15.289 A
USER  
USER    Estimated Free Energy of Binding    =   -9.71 kcal/mol  [=(1)+(2)+(3)-(4)]
USER    Estimated Inhibition Constant, Ki   =   76.30 nM (nanomolar)  [Temperature = 298.15 K]
USER    
USER    (1) Final Intermolecular Energy     =  -12.39 kcal/mol
USER        vdW + Hbond + desolv Energy     =  -12.39 kcal/mol
USER        Electrostatic Energy            =   +0.00 kcal/mol
USER    (2) Final Total Internal Energy     =   -1.79 kcal/mol
USER    (3) Torsional Free Energy           =   +2.68 kcal/mol
USER    (4) Unbound System's Energy  [=(2)] =   -1.79 kcal/mol
USER    
USER    
USER  
USER    DPF = ligand_dock.biased.dpf
USER    NEWDPF move	ligand.pdbqt
USER    NEWDPF about	1.619000 0.086000 0.013000
USER    NEWDPF tran0	20.340737 -8.729106 -0.090116
USER    NEWDPF axisangle0	-0.940186 0.116537 0.320109 -103.447690
USER    NEWDPF quaternion0	-0.738078 0.091485 0.251296 -0.619452
USER    NEWDPF dihe0	-160.23 50.50 -156.79 175.97 145.96 -135.21 -171.52 84.79 141.71 
USER  
USER                              x       y       z    vdW   Elec        q     RMS 
ATOM      1  C   UNL     1      21.397 -10.849   0.269 -0.58 -0.00    +0.000    15.289
ATOM      2  C   UNL     1      20.037 -10.952   0.896 -0.60 -0.00    +0.000    15.289
ATOM      3  C   UNL     1      19.888 -10.912   2.290 -0.64 -0.00    +0.000    15.289
ATOM      4  C   UNL     1      18.621 -11.026   2.870 -0.51 -0.00    +0.000    15.289
ATOM      5  C   UNL     1      17.487 -11.196   2.063 -0.41 +0.00    +0.000    15.289
ATOM      6  C   UNL     1      16.213 -11.321   2.636 -0.39 +0.00    +0.000    15.289
ATOM      7  C   UNL     1      15.084 -11.526   1.826 -0.41 +0.00    +0.000    15.289
ATOM      8  C   UNL     1      15.235 -11.562   0.431 -0.36 +0.00    +0.000    15.289
ATOM      9  C   UNL     1      16.500 -11.430  -0.150 -0.35 +0.00    +0.000    15.289
ATOM     10  C   UNL     1      17.632 -11.252   0.656 -0.40 -0.00    +0.000    15.289
ATOM     11  C   UNL     1      18.906 -11.128   0.082 -0.46 -0.00    +0.000    15.289
ATOM     12  C   UNL     1      13.717 -11.648   2.449 -0.37 +0.00    +0.000    15.289
ATOM     13  N   UNL     1      13.018 -10.344   2.454 -0.27 +0.00    +0.000    15.289
ATOM     14  H   UNL     1      12.579 -10.339   3.375 -0.01 +0.00    +0.000    15.289
ATOM     15  C   UNL     1      13.918  -9.171   2.465 -0.26 +0.00    +0.000    15.289
ATOM     16  C   UNL     1      14.324  -8.720   3.870 -0.36 +0.00    +0.000    15.289
ATOM     17  C   UNL     1      11.828 -10.218   1.573 -0.25 +0.00    +0.000    15.289
ATOM     18  C   UNL     1      11.356 -11.532   0.935 -0.42 +0.00    +0.000    15.289
ATOM     19  O   UNL     1      21.512  -9.598  -0.400 -0.73 -0.00    +0.000    15.289
ATOM     20  O   UNL     1      21.584  -8.365  -2.349 -0.53 -0.00    +0.000    15.289
ATOM     21  C   UNL     1      21.298  -9.452  -1.774 -0.58 -0.00    +0.000    15.289
ATOM     22  N   UNL     1      20.708 -10.534  -2.506 -0.50 -0.00    +0.000    15.289
ATOM     23  H   UNL     1      20.392 -11.316  -1.996 -0.03 -0.00    +0.000    15.289
ATOM     24  C   UNL     1      20.547 -10.556  -3.934 -0.43 -0.00    +0.000    15.289
ATOM     25  C   UNL     1      21.644 -10.881  -4.745 -0.46 -0.00    +0.000    15.289
ATOM     26  C   UNL     1      21.523 -10.884  -6.137 -0.39 -0.00    +0.000    15.289
ATOM     27  C   UNL     1      20.304 -10.538  -6.748 -0.28 -0.00    +0.000    15.289
ATOM     28  C   UNL     1      19.207 -10.205  -5.933 -0.26 -0.00    +0.000    15.289
ATOM     29  C   UNL     1      19.330 -10.204  -4.541 -0.30 -0.00    +0.000    15.289
ATOM     30  C   UNL     1      20.156 -10.532  -8.226 -0.24 -0.00    +0.000    15.289
ATOM     31  N   UNL     1      18.922 -10.163  -8.852 -0.19 -0.00    +0.000    15.289
ATOM     32  O   UNL     1      18.845 -10.067 -10.199 -0.14 -0.00    +0.000    15.289
ATOM     33  O   UNL     1      21.132 -10.873  -8.949 -0.27 -0.00    +0.000    15.289
ATOM     34  H   UNL     1      18.128  -9.979  -8.300 -0.01 -0.00    +0.000    15.289
TER
ENDMDL


AVSFLD: # AVS field file
AVSFLD: #
AVSFLD: # Created by AutoDock
AVSFLD: #
AVSFLD: ndim=2           # number of dimensions in the field
AVSFLD: nspace=1         # number of physical coordinates
AVSFLD: veclen=7         # vector size
AVSFLD: dim1=34          # atoms
AVSFLD: dim2=23          # conformations
AVSFLD: data=Real       # data type (byte,integer,Real,double)
AVSFLD: field=uniform    # field coordinate layout
AVSFLD: label= x y z vdW Elec q RMS
AVSFLD: variable 1 file = ligand_dock.biased.dlg.pdb filetype = ascii offset = 5 stride = 12
AVSFLD: variable 2 file = ligand_dock.biased.dlg.pdb filetype = ascii offset = 6 stride = 12
AVSFLD: variable 3 file = ligand_dock.biased.dlg.pdb filetype = ascii offset = 7 stride = 12
AVSFLD: variable 4 file = ligand_dock.biased.dlg.pdb filetype = ascii offset = 8 stride = 12
AVSFLD: variable 5 file = ligand_dock.biased.dlg.pdb filetype = ascii offset = 9 stride = 12
AVSFLD: variable 6 file = ligand_dock.biased.dlg.pdb filetype = ascii offset = 10 stride = 12
AVSFLD: variable 7 file = ligand_dock.biased.dlg.pdb filetype = ascii offset = 11 stride = 12
AVSFLD: # end of file

>>> Closing the docking parameter file (DPF)...
This docking finished at:			5:23 42" p.m., 11/03/2024


________________________________________________________________________________

autodock4: Successful Completion on "ThinkStation-P620"

Real= 17m 21.14s,  CPU= 17m 18.26s,  System= 0.20s
________________________________________________________________________________

