REMARK  Name = 
REMARK  12 active torsions:
REMARK  status: ('A' for Active; 'I' for Inactive)
REMARK    1  A    between atoms: C_2  and  O_3
REMARK    2  A    between atoms: O_3  and  C_4
REMARK    3  A    between atoms: C_4  and  C_5
REMARK    4  A    between atoms: C_10  and  C_11
REMARK    5  A    between atoms: C_11  and  N_12
REMARK    6  A    between atoms: N_12  and  C_13
REMARK    7  A    between atoms: N_12  and  C_15
REMARK    8  A    between atoms: C_13  and  C_14
REMARK    9  A    between atoms: C_15  and  C_16
REMARK   10  A    between atoms: N_21  and  C_22
REMARK   11  A    between atoms: C_25  and  C_26
REMARK   12  A    between atoms: N_27  and  O_28
REMARK                            x       y       z     vdW  Elec       q    Type
REMARK                         _______ _______ _______ _____ _____    ______ ____
ROOT
ATOM      1  C   UNL     1       1.701  -0.440   1.479  0.00  0.00     0.000 C 
ENDROOT
BRANCH   1   2
ATOM      2  C   UNL     1       0.298  -0.547   0.957  0.00  0.00     0.000 A 
ATOM      3  C   UNL     1      -0.175  -1.766   0.448  0.00  0.00     0.000 A 
ATOM      4  C   UNL     1      -1.468  -1.863  -0.072  0.00  0.00     0.000 A 
ATOM      5  C   UNL     1      -2.302  -0.736  -0.103  0.00  0.00     0.000 A 
ATOM      6  C   UNL     1      -3.602  -0.824  -0.625  0.00  0.00     0.000 A 
ATOM      7  C   UNL     1      -4.431   0.309  -0.658  0.00  0.00     0.000 A 
ATOM      8  C   UNL     1      -3.953   1.532  -0.162  0.00  0.00     0.000 A 
ATOM      9  C   UNL     1      -2.660   1.628   0.358  0.00  0.00     0.000 A 
ATOM     10  C   UNL     1      -1.827   0.501   0.393  0.00  0.00     0.000 A 
ATOM     11  C   UNL     1      -0.527   0.588   0.914  0.00  0.00     0.000 A 
ATOM     36  CM  UNL     1      -1.000  -0.637   0.423  1.00  0.00     0.000 AC
ATOM     37  CM  UNL     1      -3.129   0.402  -0.133  1.00  0.00     0.000 AC
BRANCH   7  12
ATOM     12  C   UNL     1      -5.834   0.219  -1.199  0.00  0.00     0.000 C 
BRANCH  12  13
ATOM     13  N   UNL     1      -6.813   0.394  -0.105  0.00  0.00     0.000 N 
ATOM     14  H   UNL     1      -6.430   1.067   0.558  0.00  0.00     0.000 HD
BRANCH  13  15
ATOM     15  C   UNL     1      -6.999  -0.861   0.661  0.00  0.00     0.000 C 
ATOM     16  C   UNL     1      -7.732  -0.621   1.980  0.00  0.00     0.000 C 
ENDBRANCH  13  15
BRANCH  13  17
ATOM     17  C   UNL     1      -8.078   1.008  -0.581  0.00  0.00     0.000 C 
ATOM     18  C   UNL     1      -8.890   0.121  -1.536  0.00  0.00     0.000 C 
ENDBRANCH  13  17
ENDBRANCH  12  13
ENDBRANCH   7  12
ENDBRANCH   1   2
BRANCH   1  19
ATOM     19  O   UNL     1       2.569  -0.060   0.416  0.00  0.00     0.000 OA
BRANCH  19  21
ATOM     20  O   UNL     1       4.464  -0.029   1.732  0.00  0.00     0.000 OA
ATOM     21  C   UNL     1       3.943   0.122   0.592  0.00  0.00     0.000 C 
ATOM     22  N   UNL     1       4.742   0.524  -0.528  0.00  0.00     0.000 N 
ATOM     23  H   UNL     1       4.276   0.783  -1.356  0.00  0.00     0.000 HD
BRANCH  22  24
ATOM     24  C   UNL     1       6.179   0.574  -0.524  0.00  0.00     0.000 A 
ATOM     25  C   UNL     1       6.835   1.545  -1.293  0.00  0.00     0.000 A 
ATOM     26  C   UNL     1       8.231   1.602  -1.324  0.00  0.00     0.000 A 
ATOM     27  C   UNL     1       9.001   0.682  -0.592  0.00  0.00     0.000 A 
ATOM     28  C   UNL     1       8.342  -0.314   0.151  0.00  0.00     0.000 A 
ATOM     29  C   UNL     1       6.945  -0.370   0.182  0.00  0.00     0.000 A 
ATOM     38  CM  UNL     1       7.589   0.620  -0.567  1.00  0.00     0.000 AC
BRANCH  27  30
ATOM     30  C   UNL     1      10.482   0.752  -0.638  0.00  0.00     0.000 C 
ATOM     31  N   UNL     1      11.289   0.196   0.407  0.00  0.00     0.000 N 
ATOM     32  O   UNL     1      11.047   1.325  -1.609  0.00  0.00     0.000 OA
ATOM     33  H   UNL     1      10.861  -0.178   1.211  0.00  0.00     0.000 HD
BRANCH  31  34
ATOM     34  O   UNL     1      12.639   0.182   0.294  0.00  0.00     0.000 OA
ATOM     35  H   UNL     1      12.897   0.584  -0.550  0.00  0.00     0.000 HD
ENDBRANCH  31  34
ENDBRANCH  27  30
ENDBRANCH  22  24
ENDBRANCH  19  21
ENDBRANCH   1  19
TORSDOF 10