          AutoDock 4.2 Release 4.2.6   
         (C) 1989-2012 The Scripps Research Institute
        AutoDock comes with ABSOLUTELY NO WARRANTY.
        AutoDock is free software, and you are welcome
        to redistribute it under certain conditions;
        for details type 'autodock4 -C'

                     main.cc  $Revision: 1.213 $

                   Compiled on Feb 20 2022 at 09:48:33


This file was created at:			6:39 07" p.m., 11/08/2024
                   on host:		"ThinkStation-P620"
Current Working Directory = "/home/antonio/Documenti/buccheri/IDROSSAMICO HDAC/HDAC 8/P (copia)/Ligand_2"

      ________________________________________________________________

                   SETTING UP DEFAULT PARAMETER LIBRARY
      ________________________________________________________________


Random number generator was seeded with values 358150, 1731087547.
Docking parameter file (DPF) used for this docking:		ligand_dock.biased.dpf
DPF> parameter_file ad4_arom_params.dat

Using read_parameter_library() to try to open and read "ad4_arom_params.dat".

DPF> autodock_parameter_version 4.2       # used by autodock to validate parameter set

	Autodock parameter version 4.2.
DPF> outlev 1                             # diagnostic output level

Output Level = 1  ADT-COMPATIBLE OUTPUT DURING DOCKING.
DPF> intelec                              # calculate internal electrostatics

Electrostatic energies will be calculated for all non-bonds between moving atoms.
DPF> seed pid time                        # seeds for random generator

Random number generator was seeded with values 358150, 1731087547.
DPF> ligand_types A C OA HD N AC

WARNING: pairwise distance, Rij, 0.00, is not a very reasonable value for the equilibrium separation of two atoms! (0.90 Angstroms <= Rij <= 6.00 Angstroms)

Perhaps you meant to use "intnbp_coeffs" instead of "intnbp_r_eps"?

DPF> fld receptor.maps.fld                # grid_data_file

Opening Grid Map Dimensions file:		receptor.maps.fld
Grid Point Spacing =				0.375 Angstroms

Even Number of User-specified Grid Points =	70 x-points
						70 y-points
						70 z-points

Coordinates of Central Grid Point of Maps =	(36.691, 12.592, 124.207)
Macromolecule file used to create Grid Maps =	receptor.pdbqt
Grid Parameter file used to create Grid Maps =	receptor.gpf
Minimum coordinates in grid = (23.566, -0.533, 111.082)
Maximum coordinates in grid = (49.816, 25.717, 137.332)

DPF> map receptor.A.map                   # atom-specific affinity map

DPF> map receptor.C.map                   # atom-specific affinity map

DPF> map receptor.OA.biased.map

DPF> map receptor.HD.map                  # atom-specific affinity map

DPF> map receptor.N.map                   # atom-specific affinity map

DPF> map receptor.AC.biased.map

DPF> elecmap receptor.e.map               # electrostatics map

DPF> desolvmap receptor.d.map             # desolvation map

DPF> move ligand.dum.pdbqt

1,4-interactions will be _ignored_ in the non-bonded internal energy calculation.

Ligand PDBQT file = "ligand.dum.pdbqt"

INPUT LIGAND PDBQT FILE:
________________________

INPUT-LIGAND-PDBQT: REMARK  Name = 
INPUT-LIGAND-PDBQT: REMARK  12 active torsions:
INPUT-LIGAND-PDBQT: REMARK  status: ('A' for Active; 'I' for Inactive)
INPUT-LIGAND-PDBQT: REMARK    1  A    between atoms: C_2  and  O_3
INPUT-LIGAND-PDBQT: REMARK    2  A    between atoms: O_3  and  C_4
INPUT-LIGAND-PDBQT: REMARK    3  A    between atoms: C_4  and  C_5
INPUT-LIGAND-PDBQT: REMARK    4  A    between atoms: C_10  and  C_11
INPUT-LIGAND-PDBQT: REMARK    5  A    between atoms: C_11  and  N_12
INPUT-LIGAND-PDBQT: REMARK    6  A    between atoms: N_12  and  C_13
INPUT-LIGAND-PDBQT: REMARK    7  A    between atoms: N_12  and  C_15
INPUT-LIGAND-PDBQT: REMARK    8  A    between atoms: C_13  and  C_14
INPUT-LIGAND-PDBQT: REMARK    9  A    between atoms: C_15  and  C_16
INPUT-LIGAND-PDBQT: REMARK   10  A    between atoms: N_21  and  C_22
INPUT-LIGAND-PDBQT: REMARK   11  A    between atoms: C_25  and  C_26
INPUT-LIGAND-PDBQT: REMARK   12  A    between atoms: N_27  and  O_28
INPUT-LIGAND-PDBQT: REMARK                            x       y       z     vdW  Elec       q    Type
INPUT-LIGAND-PDBQT: REMARK                         _______ _______ _______ _____ _____    ______ ____
INPUT-LIGAND-PDBQT: ROOT
INPUT-LIGAND-PDBQT: ATOM      1  C   UNL     1       1.701  -0.440   1.479  0.00  0.00     0.000 C 
INPUT-LIGAND-PDBQT: ENDROOT
INPUT-LIGAND-PDBQT: BRANCH   1   2
INPUT-LIGAND-PDBQT: ATOM      2  C   UNL     1       0.298  -0.547   0.957  0.00  0.00     0.000 A 
INPUT-LIGAND-PDBQT: ATOM      3  C   UNL     1      -0.175  -1.766   0.448  0.00  0.00     0.000 A 
INPUT-LIGAND-PDBQT: ATOM      4  C   UNL     1      -1.468  -1.863  -0.072  0.00  0.00     0.000 A 
INPUT-LIGAND-PDBQT: ATOM      5  C   UNL     1      -2.302  -0.736  -0.103  0.00  0.00     0.000 A 
INPUT-LIGAND-PDBQT: ATOM      6  C   UNL     1      -3.602  -0.824  -0.625  0.00  0.00     0.000 A 
INPUT-LIGAND-PDBQT: ATOM      7  C   UNL     1      -4.431   0.309  -0.658  0.00  0.00     0.000 A 
INPUT-LIGAND-PDBQT: ATOM      8  C   UNL     1      -3.953   1.532  -0.162  0.00  0.00     0.000 A 
INPUT-LIGAND-PDBQT: ATOM      9  C   UNL     1      -2.660   1.628   0.358  0.00  0.00     0.000 A 
INPUT-LIGAND-PDBQT: ATOM     10  C   UNL     1      -1.827   0.501   0.393  0.00  0.00     0.000 A 
INPUT-LIGAND-PDBQT: ATOM     11  C   UNL     1      -0.527   0.588   0.914  0.00  0.00     0.000 A 
INPUT-LIGAND-PDBQT: ATOM     36  CM  UNL     1      -1.000  -0.637   0.423  1.00  0.00     0.000 AC
INPUT-LIGAND-PDBQT: ATOM     37  CM  UNL     1      -3.129   0.402  -0.133  1.00  0.00     0.000 AC
INPUT-LIGAND-PDBQT: BRANCH   7  12
INPUT-LIGAND-PDBQT: ATOM     12  C   UNL     1      -5.834   0.219  -1.199  0.00  0.00     0.000 C 
INPUT-LIGAND-PDBQT: BRANCH  12  13
INPUT-LIGAND-PDBQT: ATOM     13  N   UNL     1      -6.813   0.394  -0.105  0.00  0.00     0.000 N 
INPUT-LIGAND-PDBQT: ATOM     14  H   UNL     1      -6.430   1.067   0.558  0.00  0.00     0.000 HD
INPUT-LIGAND-PDBQT: BRANCH  13  15
INPUT-LIGAND-PDBQT: ATOM     15  C   UNL     1      -6.999  -0.861   0.661  0.00  0.00     0.000 C 
INPUT-LIGAND-PDBQT: ATOM     16  C   UNL     1      -7.732  -0.621   1.980  0.00  0.00     0.000 C 
INPUT-LIGAND-PDBQT: ENDBRANCH  13  15
INPUT-LIGAND-PDBQT: BRANCH  13  17
INPUT-LIGAND-PDBQT: ATOM     17  C   UNL     1      -8.078   1.008  -0.581  0.00  0.00     0.000 C 
INPUT-LIGAND-PDBQT: ATOM     18  C   UNL     1      -8.890   0.121  -1.536  0.00  0.00     0.000 C 
INPUT-LIGAND-PDBQT: ENDBRANCH  13  17
INPUT-LIGAND-PDBQT: ENDBRANCH  12  13
INPUT-LIGAND-PDBQT: ENDBRANCH   7  12
INPUT-LIGAND-PDBQT: ENDBRANCH   1   2
INPUT-LIGAND-PDBQT: BRANCH   1  19
INPUT-LIGAND-PDBQT: ATOM     19  O   UNL     1       2.569  -0.060   0.416  0.00  0.00     0.000 OA
INPUT-LIGAND-PDBQT: BRANCH  19  21
INPUT-LIGAND-PDBQT: ATOM     20  O   UNL     1       4.464  -0.029   1.732  0.00  0.00     0.000 OA
INPUT-LIGAND-PDBQT: ATOM     21  C   UNL     1       3.943   0.122   0.592  0.00  0.00     0.000 C 
INPUT-LIGAND-PDBQT: ATOM     22  N   UNL     1       4.742   0.524  -0.528  0.00  0.00     0.000 N 
INPUT-LIGAND-PDBQT: ATOM     23  H   UNL     1       4.276   0.783  -1.356  0.00  0.00     0.000 HD
INPUT-LIGAND-PDBQT: BRANCH  22  24
INPUT-LIGAND-PDBQT: ATOM     24  C   UNL     1       6.179   0.574  -0.524  0.00  0.00     0.000 A 
INPUT-LIGAND-PDBQT: ATOM     25  C   UNL     1       6.835   1.545  -1.293  0.00  0.00     0.000 A 
INPUT-LIGAND-PDBQT: ATOM     26  C   UNL     1       8.231   1.602  -1.324  0.00  0.00     0.000 A 
INPUT-LIGAND-PDBQT: ATOM     27  C   UNL     1       9.001   0.682  -0.592  0.00  0.00     0.000 A 
INPUT-LIGAND-PDBQT: ATOM     28  C   UNL     1       8.342  -0.314   0.151  0.00  0.00     0.000 A 
INPUT-LIGAND-PDBQT: ATOM     29  C   UNL     1       6.945  -0.370   0.182  0.00  0.00     0.000 A 
INPUT-LIGAND-PDBQT: ATOM     38  CM  UNL     1       7.589   0.620  -0.567  1.00  0.00     0.000 AC
INPUT-LIGAND-PDBQT: BRANCH  27  30
INPUT-LIGAND-PDBQT: ATOM     30  C   UNL     1      10.482   0.752  -0.638  0.00  0.00     0.000 C 
INPUT-LIGAND-PDBQT: ATOM     31  N   UNL     1      11.289   0.196   0.407  0.00  0.00     0.000 N 
INPUT-LIGAND-PDBQT: ATOM     32  O   UNL     1      11.047   1.325  -1.609  0.00  0.00     0.000 OA
INPUT-LIGAND-PDBQT: ATOM     33  H   UNL     1      10.861  -0.178   1.211  0.00  0.00     0.000 HD
INPUT-LIGAND-PDBQT: BRANCH  31  34
INPUT-LIGAND-PDBQT: ATOM     34  O   UNL     1      12.639   0.182   0.294  0.00  0.00     0.000 OA
INPUT-LIGAND-PDBQT: ATOM     35  H   UNL     1      12.897   0.584  -0.550  0.00  0.00     0.000 HD
INPUT-LIGAND-PDBQT: ENDBRANCH  31  34
INPUT-LIGAND-PDBQT: ENDBRANCH  27  30
INPUT-LIGAND-PDBQT: ENDBRANCH  22  24
INPUT-LIGAND-PDBQT: ENDBRANCH  19  21
INPUT-LIGAND-PDBQT: ENDBRANCH   1  19
INPUT-LIGAND-PDBQT: TORSDOF 10________________________________________________________________________________

Total charge on ligand                               =	+0.000 e
REMARK  Name = 
REMARK  12 active torsions:
REMARK  status: ('A' for Active; 'I' for Inactive)
REMARK    1  A    between atoms: C_2  and  O_3
REMARK    2  A    between atoms: O_3  and  C_4
REMARK    3  A    between atoms: C_4  and  C_5
REMARK    4  A    between atoms: C_10  and  C_11
REMARK    5  A    between atoms: C_11  and  N_12
REMARK    6  A    between atoms: N_12  and  C_13
REMARK    7  A    between atoms: N_12  and  C_15
REMARK    8  A    between atoms: C_13  and  C_14
REMARK    9  A    between atoms: C_15  and  C_16
REMARK   10  A    between atoms: N_21  and  C_22
REMARK   11  A    between atoms: C_25  and  C_26
REMARK   12  A    between atoms: N_27  and  O_28
REMARK                            x       y       z     vdW  Elec       q    Type
REMARK                         _______ _______ _______ _____ _____    ______ ____


Number of Rotatable Bonds in Small Molecule =	10 torsions
Number of atoms in ligand:  38

Number of non-hydrogen atoms in ligand:  34

Number of vibrational degrees of freedom of ligand:  108


Number of torsional degrees of freedom = 10
Estimated loss of torsional free energy upon binding = +2.9830 kcal/mol


DPF> about 1.858 0.218 -0.021            # small molecule center

Small molecule center of rotation =	(+1.858, +0.218, -0.021)

DPF> tran0 random                         # initial coordinates/A or random

Initial translation =			(45.350, 25.083, 113.628) Angstroms
DPF> quaternion0 random                   # initial orientation

Each run will begin with a new, random initial orientation.
Initial quaternion,  (x,y,z,w) =	( 0.007, 0.698, 0.596, 0.397 ),
DPF> dihe0 random                         # initial dihedrals (relative) or random

DPF> torsdof 10                            # torsional degrees of freedom

Number of torsional degrees of freedom = 10
Free energy coefficient for torsional degrees of freedom = 0.2983 as specified in parameter library "ad4_arom_params.dat".

Estimated loss of torsional free energy upon binding = +2.9830 kcal/mol

DPF> rmstol 2.0                           # cluster_tolerance/A

Maximum RMS tolerance for conformational cluster analysis = 2.00 Angstroms
DPF> extnrg 1000.0                        # external grid energy

External grid energy (beyond grid map walls) = 1000.00

DPF> e0max 0.0 10000                      # max initial energy; max number of retries

Using user-specified maximum number of retries for simanneal initialization, 10000 retries.
If the simanneal initial energy is greater than e0max, 0.000,
then a new, random initial state will be created.

DPF> ga_pop_size 150                      # number of individuals in population

A population of 150 individuals will be used
DPF> ga_num_evals 2500000                 # maximum number of energy evaluations

There will be at most 2500000 function evaluations used.
DPF> ga_num_generations 27000             # maximum number of generations

The GA will run for at most 27000 generations.
DPF> ga_elitism 1                         # number of top individuals to survive to next generation

The 1 best will be preserved each GA generation.
DPF> ga_mutation_rate 0.02                # rate of gene mutation

The mutation rate is 0.020000.
DPF> ga_crossover_rate 0.8                # rate of crossover

The crossover rate is 0.800000.
DPF> ga_window_size 10                    # 

The GA's selection window is 10 generations.
DPF> ga_cauchy_alpha 0.0                  # Alpha parameter of Cauchy distribution

The alpha parameter (for the Cauchy distribution) is being set to 0.000000.
DPF> ga_cauchy_beta 1.0                   # Beta parameter Cauchy distribution

The beta parameter (for the Cauchy distribution) is being set to 1.000000.
DPF> set_ga                               # set the above parameters for GA or LGA

DPF> sw_max_its 300                       # iterations of Solis & Wets local search

Solis & Wets algorithms will perform at most 300 iterations.
DPF> sw_max_succ 4                        # consecutive successes before changing rho

Solis & Wets algorithms expand rho every 4 in a row successes.
DPF> sw_max_fail 4                        # consecutive failures before changing rho

Solis & Wets algorithms contract rho every 4 in a row failures.
DPF> sw_rho 1.0                           # size of local search space to sample

rho is set to 1.000000.
DPF> sw_lb_rho 0.01                       # lower bound on rho

rho will never get smaller than 0.010000.
DPF> ls_search_freq 0.06                  # probability of performing local search on individual

Local search will be performed with frequency 0.060000.
DPF> set_psw1                             # set the above pseudo-Solis & Wets parameters

Creating a new Local Search object using the pseudo-Solis-Wets algorithm (pSW1) with the current settings.

DPF> unbound_model bound                  # state of unbound ligand

DPF> ga_run 100                           # do this many hybrid GA-LS runs

centering ligand on specified point: 1.858 0.218 -0.021
Furthest true ligand atom from "about" center is 11.058 Angstroms (maxrad).
Number of requested GA dockings = 100 runs
Unbound model to be used is 'same as bound' [AutoDock 4.2 default].

	BEGINNING GENETIC ALGORITHM DOCKING 1 of 100
Run: 1 Seed: 1585026954 299013364 [ Run 1 of 100 GA/GALS ]
Beginning LAMARCKIAN GENETIC ALGORITHM (LGA), with a maximum of 2500000 energy evaluations.

Final-Value: -17.843


	FINAL GENETIC ALGORITHM DOCKED STATE
	_______________________________________________


Detailed state:  trans 35.787 17.028 123.008 quatxyzw -0.145741 -0.709441 -0.398970 -0.562384 center 1.858 0.218 -0.021 ntor 10 -90.6039 -180.0000 19.6840 -39.8666 -13.8654 87.7014 -82.9352 -73.3149 109.2152 94.5872
State:	 35.787  17.028 123.008  -0.176 -0.858 -0.483 -111.558    -90.60 -180.00   19.68  -39.87  -13.87   87.70  -82.94  -73.31  109.22   94.59

DOCKED: MODEL        1
DOCKED: USER    Run = 1
DOCKED: USER    DPF = ligand_dock.biased.dpf
DOCKED: USER  
DOCKED: USER    Estimated Free Energy of Binding    =  -12.65 kcal/mol  [=(1)+(2)+(3)-(4)]
DOCKED: USER    Estimated Inhibition Constant, Ki   =  530.23 pM (picomolar)  [Temperature = 298.15 K]
DOCKED: USER    
DOCKED: USER    (1) Final Intermolecular Energy     =  -15.64 kcal/mol
DOCKED: USER        vdW + Hbond + desolv Energy     =  -15.64 kcal/mol
DOCKED: USER        Electrostatic Energy            =   +0.00 kcal/mol
DOCKED: USER    (2) Final Total Internal Energy     =   -2.21 kcal/mol
DOCKED: USER    (3) Torsional Free Energy           =   +2.98 kcal/mol
DOCKED: USER    (4) Unbound System's Energy  [=(2)] =   -2.21 kcal/mol
DOCKED: USER    
DOCKED: USER    
DOCKED: USER    NEWDPF move ligand.dum.pdbqt
DOCKED: USER    NEWDPF about 1.858000 0.218000 -0.021000
DOCKED: USER    NEWDPF tran0 35.787062 17.028472 123.008397
DOCKED: USER    NEWDPF quaternion0 -0.145741 -0.709441 -0.398970 -0.562384
DOCKED: USER    NEWDPF axisangle0 -0.176255 -0.857978 -0.482503 -111.558344
DOCKED: USER    NEWDPF quat0 -0.176255 -0.857978 -0.482503 -111.558344
DOCKED: USER    NEWDPF dihe0 -90.60 -180.00 19.68 -39.87 -13.87 87.70 -82.94 -73.31 109.22 94.59 
DOCKED: USER  keepresnum = 1 
DOCKED: USER  
DOCKED: REMARK  Name = 
DOCKED: REMARK  12 active torsions:
DOCKED: REMARK  status: ('A' for Active; 'I' for Inactive)
DOCKED: REMARK    1  A    between atoms: C_2  and  O_3
DOCKED: REMARK    2  A    between atoms: O_3  and  C_4
DOCKED: REMARK    3  A    between atoms: C_4  and  C_5
DOCKED: REMARK    4  A    between atoms: C_10  and  C_11
DOCKED: REMARK    5  A    between atoms: C_11  and  N_12
DOCKED: REMARK    6  A    between atoms: N_12  and  C_13
DOCKED: REMARK    7  A    between atoms: N_12  and  C_15
DOCKED: REMARK    8  A    between atoms: C_13  and  C_14
DOCKED: REMARK    9  A    between atoms: C_15  and  C_16
DOCKED: REMARK   10  A    between atoms: N_21  and  C_22
DOCKED: REMARK   11  A    between atoms: C_25  and  C_26
DOCKED: REMARK   12  A    between atoms: N_27  and  O_28
DOCKED: REMARK                            x       y       z     vdW  Elec       q    Type
DOCKED: REMARK                         _______ _______ _______ _____ _____    ______ ____
DOCKED: USER                              x       y       z     vdW  Elec       q    Type
DOCKED: USER                           _______ _______ _______ _____ _____    ______ ____
DOCKED: ROOT
DOCKED: ATOM      1  C   UNL     1      34.384  17.741 122.527 -0.39 -0.00    +0.000 C 
DOCKED: ENDROOT
DOCKED: BRANCH   1   2
DOCKED: ATOM      2  C   UNL     1      35.126  17.631 121.226 -0.26 -0.00    +0.000 A 
DOCKED: ATOM      3  C   UNL     1      34.697  18.358 120.105 -0.25 -0.00    +0.000 A 
DOCKED: ATOM      4  C   UNL     1      35.362  18.232 118.883 -0.14 -0.00    +0.000 A 
DOCKED: ATOM      5  C   UNL     1      36.458  17.366 118.762 -0.10 -0.00    +0.000 A 
DOCKED: ATOM      6  C   UNL     1      37.130  17.232 117.537 -0.07 -0.00    +0.000 A 
DOCKED: ATOM      7  C   UNL     1      38.224  16.359 117.420 -0.10 -0.00    +0.000 A 
DOCKED: ATOM      8  C   UNL     1      38.644  15.621 118.538 -0.15 -0.00    +0.000 A 
DOCKED: ATOM      9  C   UNL     1      37.979  15.747 119.760 -0.17 -0.00    +0.000 A 
DOCKED: ATOM     10  C   UNL     1      36.886  16.617 119.883 -0.14 -0.00    +0.000 A 
DOCKED: ATOM     11  C   UNL     1      36.212  16.750 121.107 -0.18 -0.00    +0.000 A 
DOCKED: ATOM     12  CM  UNL     1      35.790  17.492 119.995 +0.00 -0.00    +0.000 AC
DOCKED: ATOM     13  CM  UNL     1      37.553  16.490 118.650 +0.00 -0.00    +0.000 AC
DOCKED: BRANCH   7  12
DOCKED: ATOM     14  C   UNL     1      38.963  16.224 116.115 -0.14 -0.00    +0.000 C 
DOCKED: BRANCH  12  13
DOCKED: ATOM     15  N   UNL     1      39.740  14.966 116.097 -0.29 -0.00    +0.000 N 
DOCKED: ATOM     16  H   UNL     1      39.649  14.526 117.012 -0.12 -0.00    +0.000 HD
DOCKED: BRANCH  13  15
DOCKED: ATOM     17  C   UNL     1      41.188  15.226 115.920 -0.34 -0.00    +0.000 C 
DOCKED: ATOM     18  C   UNL     1      41.835  15.749 117.201 -0.27 -0.00    +0.000 C 
DOCKED: ENDBRANCH  13  15
DOCKED: BRANCH  13  17
DOCKED: ATOM     19  C   UNL     1      39.179  13.977 115.143 -0.40 -0.00    +0.000 C 
DOCKED: ATOM     20  C   UNL     1      38.588  12.724 115.807 -0.53 -0.00    +0.000 C 
DOCKED: ENDBRANCH  13  17
DOCKED: ENDBRANCH  12  13
DOCKED: ENDBRANCH   7  12
DOCKED: ENDBRANCH   1   2
DOCKED: BRANCH   1  19
DOCKED: ATOM     21  O   UNL     1      35.076  16.998 123.525 -0.38 -0.00    +0.000 OA
DOCKED: BRANCH  19  21
DOCKED: ATOM     22  O   UNL     1      34.102  14.936 123.881 -0.69 -0.00    +0.000 OA
DOCKED: ATOM     23  C   UNL     1      35.117  15.601 123.533 -0.50 -0.00    +0.000 C 
DOCKED: ATOM     24  N   UNL     1      36.339  14.938 123.184 -0.42 -0.00    +0.000 N 
DOCKED: ATOM     25  H   UNL     1      37.147  15.491 123.074 -0.01 -0.00    +0.000 HD
DOCKED: BRANCH  22  24
DOCKED: ATOM     26  C   UNL     1      36.465  13.520 122.984 -0.48 -0.00    +0.000 A 
DOCKED: ATOM     27  C   UNL     1      37.081  13.042 121.819 -0.45 -0.00    +0.000 A 
DOCKED: ATOM     28  C   UNL     1      37.196  11.669 121.590 -0.43 -0.00    +0.000 A 
DOCKED: ATOM     29  C   UNL     1      36.690  10.743 122.518 -0.59 -0.00    +0.000 A 
DOCKED: ATOM     30  C   UNL     1      36.041  11.224 123.670 -0.55 -0.00    +0.000 A 
DOCKED: ATOM     31  C   UNL     1      35.926  12.598 123.899 -0.49 -0.00    +0.000 A 
DOCKED: ATOM     32  CM  UNL     1      36.567  12.132 122.746 +0.00 -0.00    +0.000 AC
DOCKED: BRANCH  27  30
DOCKED: ATOM     33  C   UNL     1      36.817   9.288 122.259 -0.70 -0.00    +0.000 C 
DOCKED: ATOM     34  N   UNL     1      37.065   8.359 123.321 -0.71 -0.00    +0.000 N 
DOCKED: ATOM     35  O   UNL     1      36.718   8.856 121.078 -2.62 -0.00    +0.000 OA
DOCKED: ATOM     36  H   UNL     1      37.228   8.689 124.234 -0.53 -0.00    +0.000 HD
DOCKED: BRANCH  31  34
DOCKED: ATOM     37  O   UNL     1      37.075   7.026 123.074 -1.84 -0.00    +0.000 OA
DOCKED: ATOM     38  H   UNL     1      37.211   6.874 122.126 -0.22 -0.00    +0.000 HD
DOCKED: ENDBRANCH  31  34
DOCKED: ENDBRANCH  27  30
DOCKED: ENDBRANCH  22  24
DOCKED: ENDBRANCH  19  21
DOCKED: ENDBRANCH   1  19
DOCKED: TORSDOF 10DOCKED: TER
DOCKED: ENDMDL
________________________________________________________________________________


	BEGINNING GENETIC ALGORITHM DOCKING 2 of 100
Run: 2 Seed: 1782104359 2095595210 [ Run 2 of 100 GA/GALS ]
Beginning LAMARCKIAN GENETIC ALGORITHM (LGA), with a maximum of 2500000 energy evaluations.

Final-Value: -15.685


	FINAL GENETIC ALGORITHM DOCKED STATE
	_______________________________________________


Detailed state:  trans 37.238 13.933 123.141 quatxyzw 0.882967 -0.395019 -0.248569 -0.050426 center 1.858 0.218 -0.021 ntor 10 -130.6281 75.6358 -18.5897 166.3482 -83.3364 -178.8151 178.2406 -88.3119 -81.8532 18.3667
State:	 37.238  13.933 123.141   0.884 -0.396 -0.249 -174.219   -130.63   75.64  -18.59  166.35  -83.34 -178.82  178.24  -88.31  -81.85   18.37

DOCKED: MODEL        2
DOCKED: USER    Run = 2
DOCKED: USER    DPF = ligand_dock.biased.dpf
DOCKED: USER  
DOCKED: USER    Estimated Free Energy of Binding    =  -10.59 kcal/mol  [=(1)+(2)+(3)-(4)]
DOCKED: USER    Estimated Inhibition Constant, Ki   =   17.37 nM (nanomolar)  [Temperature = 298.15 K]
DOCKED: USER    
DOCKED: USER    (1) Final Intermolecular Energy     =  -13.57 kcal/mol
DOCKED: USER        vdW + Hbond + desolv Energy     =  -13.57 kcal/mol
DOCKED: USER        Electrostatic Energy            =   +0.00 kcal/mol
DOCKED: USER    (2) Final Total Internal Energy     =   -2.12 kcal/mol
DOCKED: USER    (3) Torsional Free Energy           =   +2.98 kcal/mol
DOCKED: USER    (4) Unbound System's Energy  [=(2)] =   -2.12 kcal/mol
DOCKED: USER    
DOCKED: USER    
DOCKED: USER    NEWDPF move ligand.dum.pdbqt
DOCKED: USER    NEWDPF about 1.858000 0.218000 -0.021000
DOCKED: USER    NEWDPF tran0 37.237740 13.933349 123.141210
DOCKED: USER    NEWDPF quaternion0 0.882967 -0.395019 -0.248569 -0.050426
DOCKED: USER    NEWDPF axisangle0 0.884092 -0.395522 -0.248885 -174.219112
DOCKED: USER    NEWDPF quat0 0.884092 -0.395522 -0.248885 -174.219112
DOCKED: USER    NEWDPF dihe0 -130.63 75.64 -18.59 166.35 -83.34 -178.82 178.24 -88.31 -81.85 18.37 
DOCKED: USER  keepresnum = 1 
DOCKED: USER  
DOCKED: REMARK  Name = 
DOCKED: REMARK  12 active torsions:
DOCKED: REMARK  status: ('A' for Active; 'I' for Inactive)
DOCKED: REMARK    1  A    between atoms: C_2  and  O_3
DOCKED: REMARK    2  A    between atoms: O_3  and  C_4
DOCKED: REMARK    3  A    between atoms: C_4  and  C_5
DOCKED: REMARK    4  A    between atoms: C_10  and  C_11
DOCKED: REMARK    5  A    between atoms: C_11  and  N_12
DOCKED: REMARK    6  A    between atoms: N_12  and  C_13
DOCKED: REMARK    7  A    between atoms: N_12  and  C_15
DOCKED: REMARK    8  A    between atoms: C_13  and  C_14
DOCKED: REMARK    9  A    between atoms: C_15  and  C_16
DOCKED: REMARK   10  A    between atoms: N_21  and  C_22
DOCKED: REMARK   11  A    between atoms: C_25  and  C_26
DOCKED: REMARK   12  A    between atoms: N_27  and  O_28
DOCKED: REMARK                            x       y       z     vdW  Elec       q    Type
DOCKED: REMARK                         _______ _______ _______ _____ _____    ______ ____
DOCKED: USER                              x       y       z     vdW  Elec       q    Type
DOCKED: USER                           _______ _______ _______ _____ _____    ______ ____
DOCKED: ROOT
DOCKED: ATOM      1  C   UNL     1      36.873  14.657 121.709 -0.26 -0.00    +0.000 C 
DOCKED: ENDROOT
DOCKED: BRANCH   1   2
DOCKED: ATOM      2  C   UNL     1      36.404  15.688 122.693 -0.31 -0.00    +0.000 A 
DOCKED: ATOM      3  C   UNL     1      36.978  16.968 122.704 -0.21 -0.00    +0.000 A 
DOCKED: ATOM      4  C   UNL     1      36.570  17.920 123.641 -0.20 -0.00    +0.000 A 
DOCKED: ATOM      5  C   UNL     1      35.590  17.600 124.591 -0.28 -0.00    +0.000 A 
DOCKED: ATOM      6  C   UNL     1      35.175  18.551 125.537 -0.23 -0.00    +0.000 A 
DOCKED: ATOM      7  C   UNL     1      34.196  18.223 126.489 -0.27 -0.00    +0.000 A 
DOCKED: ATOM      8  C   UNL     1      33.631  16.938 126.488 -0.37 -0.00    +0.000 A 
DOCKED: ATOM      9  C   UNL     1      34.040  15.986 125.550 -0.39 -0.00    +0.000 A 
DOCKED: ATOM     10  C   UNL     1      35.017  16.307 124.598 -0.42 -0.00    +0.000 A 
DOCKED: ATOM     11  C   UNL     1      35.433  15.357 123.652 -0.45 -0.00    +0.000 A 
DOCKED: ATOM     12  CM  UNL     1      35.999  16.640 123.646 -0.02 -0.00    +0.000 AC
DOCKED: ATOM     13  CM  UNL     1      34.608  17.267 125.542 -0.32 -0.00    +0.000 AC
DOCKED: BRANCH   7  12
DOCKED: ATOM     14  C   UNL     1      33.731  19.243 127.496 -0.18 -0.00    +0.000 C 
DOCKED: BRANCH  12  13
DOCKED: ATOM     15  N   UNL     1      34.825  19.562 128.438 -0.08 -0.00    +0.000 N 
DOCKED: ATOM     16  H   UNL     1      34.410  19.947 129.286 +0.00 -0.00    +0.000 HD
DOCKED: BRANCH  13  15
DOCKED: ATOM     17  C   UNL     1      35.707  20.626 127.904 -0.07 -0.00    +0.000 C 
DOCKED: ATOM     18  C   UNL     1      34.925  21.666 127.102 -0.08 -0.00    +0.000 C 
DOCKED: ENDBRANCH  13  15
DOCKED: BRANCH  13  17
DOCKED: ATOM     19  C   UNL     1      35.546  18.345 128.888 -0.13 -0.00    +0.000 C 
DOCKED: ATOM     20  C   UNL     1      37.062  18.533 129.052 -0.15 -0.00    +0.000 C 
DOCKED: ENDBRANCH  13  17
DOCKED: ENDBRANCH  12  13
DOCKED: ENDBRANCH   7  12
DOCKED: ENDBRANCH   1   2
DOCKED: BRANCH   1  19
DOCKED: ATOM     21  O   UNL     1      37.617  13.656 122.397 -0.49 -0.00    +0.000 OA
DOCKED: BRANCH  19  21
DOCKED: ATOM     22  O   UNL     1      36.504  12.326 123.919 -0.72 -0.00    +0.000 OA
DOCKED: ATOM     23  C   UNL     1      37.058  12.438 122.790 -0.62 -0.00    +0.000 C 
DOCKED: ATOM     24  N   UNL     1      37.162  11.308 121.913 -0.51 -0.00    +0.000 N 
DOCKED: ATOM     25  H   UNL     1      37.735  11.395 121.118 -0.03 -0.00    +0.000 HD
DOCKED: BRANCH  22  24
DOCKED: ATOM     26  C   UNL     1      36.483  10.057 122.117 -0.56 -0.00    +0.000 A 
DOCKED: ATOM     27  C   UNL     1      35.241  10.046 122.767 -0.52 -0.00    +0.000 A 
DOCKED: ATOM     28  C   UNL     1      34.571   8.842 122.997 -0.51 -0.00    +0.000 A 
DOCKED: ATOM     29  C   UNL     1      35.134   7.621 122.589 -0.62 -0.00    +0.000 A 
DOCKED: ATOM     30  C   UNL     1      36.396   7.629 121.969 -0.57 -0.00    +0.000 A 
DOCKED: ATOM     31  C   UNL     1      37.066   8.835 121.739 -0.59 -0.00    +0.000 A 
DOCKED: ATOM     32  CM  UNL     1      35.815   8.838 122.363 +0.00 -0.00    +0.000 AC
DOCKED: BRANCH  27  30
DOCKED: ATOM     33  C   UNL     1      34.412   6.350 122.844 -0.76 -0.00    +0.000 C 
DOCKED: ATOM     34  N   UNL     1      33.259   5.979 122.080 -0.68 -0.00    +0.000 N 
DOCKED: ATOM     35  O   UNL     1      34.812   5.582 123.762 -0.96 -0.00    +0.000 OA
DOCKED: ATOM     36  H   UNL     1      32.886   6.607 121.420 -0.03 -0.00    +0.000 HD
DOCKED: BRANCH  31  34
DOCKED: ATOM     37  O   UNL     1      32.678   4.769 122.263 -0.73 -0.00    +0.000 OA
DOCKED: ATOM     38  H   UNL     1      33.303   4.173 122.704 -0.24 -0.00    +0.000 HD
DOCKED: ENDBRANCH  31  34
DOCKED: ENDBRANCH  27  30
DOCKED: ENDBRANCH  22  24
DOCKED: ENDBRANCH  19  21
DOCKED: ENDBRANCH   1  19
DOCKED: TORSDOF 10DOCKED: TER
DOCKED: ENDMDL
________________________________________________________________________________


	BEGINNING GENETIC ALGORITHM DOCKING 3 of 100
Run: 3 Seed: 208253687 3511475 [ Run 3 of 100 GA/GALS ]
Beginning LAMARCKIAN GENETIC ALGORITHM (LGA), with a maximum of 2500000 energy evaluations.

Final-Value: -18.685


	FINAL GENETIC ALGORITHM DOCKED STATE
	_______________________________________________


Detailed state:  trans 36.857 16.842 123.832 quatxyzw -0.931205 -0.046897 0.302938 -0.197197 center 1.858 0.218 -0.021 ntor 10 -126.9760 180.0000 20.0749 164.6472 -167.9955 -1.4619 -144.2159 -165.2537 -104.4135 -148.4927
State:	 36.857  16.842 123.832  -0.950 -0.048  0.309 -157.254   -126.98  180.00   20.07  164.65 -168.00   -1.46 -144.22 -165.25 -104.41 -148.49

DOCKED: MODEL        3
DOCKED: USER    Run = 3
DOCKED: USER    DPF = ligand_dock.biased.dpf
DOCKED: USER  
DOCKED: USER    Estimated Free Energy of Binding    =  -13.51 kcal/mol  [=(1)+(2)+(3)-(4)]
DOCKED: USER    Estimated Inhibition Constant, Ki   =  124.47 pM (picomolar)  [Temperature = 298.15 K]
DOCKED: USER    
DOCKED: USER    (1) Final Intermolecular Energy     =  -16.50 kcal/mol
DOCKED: USER        vdW + Hbond + desolv Energy     =  -16.50 kcal/mol
DOCKED: USER        Electrostatic Energy            =   +0.00 kcal/mol
DOCKED: USER    (2) Final Total Internal Energy     =   -2.19 kcal/mol
DOCKED: USER    (3) Torsional Free Energy           =   +2.98 kcal/mol
DOCKED: USER    (4) Unbound System's Energy  [=(2)] =   -2.19 kcal/mol
DOCKED: USER    
DOCKED: USER    
DOCKED: USER    NEWDPF move ligand.dum.pdbqt
DOCKED: USER    NEWDPF about 1.858000 0.218000 -0.021000
DOCKED: USER    NEWDPF tran0 36.856876 16.842180 123.831776
DOCKED: USER    NEWDPF quaternion0 -0.931205 -0.046897 0.302938 -0.197197
DOCKED: USER    NEWDPF axisangle0 -0.949856 -0.047836 0.309006 -157.253805
DOCKED: USER    NEWDPF quat0 -0.949856 -0.047836 0.309006 -157.253805
DOCKED: USER    NEWDPF dihe0 -126.98 180.00 20.07 164.65 -168.00 -1.46 -144.22 -165.25 -104.41 -148.49 
DOCKED: USER  keepresnum = 1 
DOCKED: USER  
DOCKED: REMARK  Name = 
DOCKED: REMARK  12 active torsions:
DOCKED: REMARK  status: ('A' for Active; 'I' for Inactive)
DOCKED: REMARK    1  A    between atoms: C_2  and  O_3
DOCKED: REMARK    2  A    between atoms: O_3  and  C_4
DOCKED: REMARK    3  A    between atoms: C_4  and  C_5
DOCKED: REMARK    4  A    between atoms: C_10  and  C_11
DOCKED: REMARK    5  A    between atoms: C_11  and  N_12
DOCKED: REMARK    6  A    between atoms: N_12  and  C_13
DOCKED: REMARK    7  A    between atoms: N_12  and  C_15
DOCKED: REMARK    8  A    between atoms: C_13  and  C_14
DOCKED: REMARK    9  A    between atoms: C_15  and  C_16
DOCKED: REMARK   10  A    between atoms: N_21  and  C_22
DOCKED: REMARK   11  A    between atoms: C_25  and  C_26
DOCKED: REMARK   12  A    between atoms: N_27  and  O_28
DOCKED: REMARK                            x       y       z     vdW  Elec       q    Type
DOCKED: REMARK                         _______ _______ _______ _____ _____    ______ ____
DOCKED: USER                              x       y       z     vdW  Elec       q    Type
DOCKED: USER                           _______ _______ _______ _____ _____    ______ ____
DOCKED: ROOT
DOCKED: ATOM      1  C   UNL     1      35.876  17.922 123.070 -0.26 -0.00    +0.000 C 
DOCKED: ENDROOT
DOCKED: BRANCH   1   2
DOCKED: ATOM      2  C   UNL     1      35.045  17.553 124.263 -0.33 -0.00    +0.000 A 
DOCKED: ATOM      3  C   UNL     1      34.857  16.205 124.604 -0.45 -0.00    +0.000 A 
DOCKED: ATOM      4  C   UNL     1      34.055  15.854 125.692 -0.31 -0.00    +0.000 A 
DOCKED: ATOM      5  C   UNL     1      33.417  16.848 126.448 -0.32 -0.00    +0.000 A 
DOCKED: ATOM      6  C   UNL     1      32.608  16.504 127.542 -0.36 -0.00    +0.000 A 
DOCKED: ATOM      7  C   UNL     1      31.968  17.504 128.293 -0.32 -0.00    +0.000 A 
DOCKED: ATOM      8  C   UNL     1      32.144  18.852 127.943 -0.20 -0.00    +0.000 A 
DOCKED: ATOM      9  C   UNL     1      32.946  19.202 126.855 -0.23 -0.00    +0.000 A 
DOCKED: ATOM     10  C   UNL     1      33.588  18.209 126.101 -0.31 -0.00    +0.000 A 
DOCKED: ATOM     11  C   UNL     1      34.396  18.552 125.007 -0.29 -0.00    +0.000 A 
DOCKED: ATOM     12  CM  UNL     1      34.226  17.204 125.352 -0.27 -0.00    +0.000 AC
DOCKED: ATOM     13  CM  UNL     1      32.778  17.854 127.197 +0.00 -0.00    +0.000 AC
DOCKED: BRANCH   7  12
DOCKED: ATOM     14  C   UNL     1      31.113  17.145 129.480 -0.45 -0.00    +0.000 C 
DOCKED: BRANCH  12  13
DOCKED: ATOM     15  N   UNL     1      31.779  17.567 130.731 -0.26 -0.00    +0.000 N 
DOCKED: ATOM     16  H   UNL     1      31.369  17.039 131.501 -0.22 -0.00    +0.000 HD
DOCKED: BRANCH  13  15
DOCKED: ATOM     17  C   UNL     1      31.508  18.992 131.035 -0.16 -0.00    +0.000 C 
DOCKED: ATOM     18  C   UNL     1      30.067  19.381 130.709 -0.29 -0.00    +0.000 C 
DOCKED: ENDBRANCH  13  15
DOCKED: BRANCH  13  17
DOCKED: ATOM     19  C   UNL     1      33.219  17.205 130.747 -0.24 -0.00    +0.000 C 
DOCKED: ATOM     20  C   UNL     1      33.592  16.143 131.791 -0.28 -0.00    +0.000 C 
DOCKED: ENDBRANCH  13  17
DOCKED: ENDBRANCH  12  13
DOCKED: ENDBRANCH   7  12
DOCKED: ENDBRANCH   1   2
DOCKED: BRANCH   1  19
DOCKED: ATOM     21  O   UNL     1      37.189  17.392 123.231 -0.22 -0.00    +0.000 OA
DOCKED: BRANCH  19  21
DOCKED: ATOM     22  O   UNL     1      38.586  15.570 123.451 -0.33 -0.00    +0.000 OA
DOCKED: ATOM     23  C   UNL     1      37.483  16.038 123.054 -0.32 -0.00    +0.000 C 
DOCKED: ATOM     24  N   UNL     1      36.535  15.201 122.379 -0.31 -0.00    +0.000 N 
DOCKED: ATOM     25  H   UNL     1      35.763  15.635 121.948 -0.01 -0.00    +0.000 HD
DOCKED: BRANCH  22  24
DOCKED: ATOM     26  C   UNL     1      36.636  13.770 122.288 -0.34 -0.00    +0.000 A 
DOCKED: ATOM     27  C   UNL     1      36.474  12.995 123.445 -0.57 -0.00    +0.000 A 
DOCKED: ATOM     28  C   UNL     1      36.588  11.603 123.389 -0.63 -0.00    +0.000 A 
DOCKED: ATOM     29  C   UNL     1      36.876  10.957 122.174 -0.52 -0.00    +0.000 A 
DOCKED: ATOM     30  C   UNL     1      37.073  11.738 121.021 -0.45 -0.00    +0.000 A 
DOCKED: ATOM     31  C   UNL     1      36.958  13.131 121.078 -0.36 -0.00    +0.000 A 
DOCKED: ATOM     32  CM  UNL     1      36.767  12.366 122.233 +0.00 -0.00    +0.000 AC
DOCKED: BRANCH  27  30
DOCKED: ATOM     33  C   UNL     1      36.998   9.480 122.131 -0.64 -0.00    +0.000 C 
DOCKED: ATOM     34  N   UNL     1      37.055   8.699 123.331 -0.66 -0.00    +0.000 N 
DOCKED: ATOM     35  O   UNL     1      37.068   8.895 121.016 -2.71 -0.00    +0.000 OA
DOCKED: ATOM     36  H   UNL     1      37.087   9.148 124.207 -0.57 -0.00    +0.000 HD
DOCKED: BRANCH  31  34
DOCKED: ATOM     37  O   UNL     1      37.065   7.346 123.266 -2.13 -0.00    +0.000 OA
DOCKED: ATOM     38  H   UNL     1      37.344   7.067 122.381 -0.19 -0.00    +0.000 HD
DOCKED: ENDBRANCH  31  34
DOCKED: ENDBRANCH  27  30
DOCKED: ENDBRANCH  22  24
DOCKED: ENDBRANCH  19  21
DOCKED: ENDBRANCH   1  19
DOCKED: TORSDOF 10DOCKED: TER
DOCKED: ENDMDL
________________________________________________________________________________


	BEGINNING GENETIC ALGORITHM DOCKING 4 of 100
Run: 4 Seed: 1101846430 336172976 [ Run 4 of 100 GA/GALS ]
Beginning LAMARCKIAN GENETIC ALGORITHM (LGA), with a maximum of 2500000 energy evaluations.

Final-Value: -16.270


	FINAL GENETIC ALGORITHM DOCKED STATE
	_______________________________________________


Detailed state:  trans 37.958 16.849 122.371 quatxyzw -0.125844 0.156483 0.976296 -0.080757 center 1.858 0.218 -0.021 ntor 10 -178.1697 69.5031 20.0953 -149.9984 17.0723 169.9979 92.6507 -89.3809 -124.4995 112.5155
State:	 37.958  16.849 122.371  -0.126  0.157  0.979 -170.736   -178.17   69.50   20.10 -150.00   17.07  170.00   92.65  -89.38 -124.50  112.52

DOCKED: MODEL        4
DOCKED: USER    Run = 4
DOCKED: USER    DPF = ligand_dock.biased.dpf
DOCKED: USER  
DOCKED: USER    Estimated Free Energy of Binding    =  -11.43 kcal/mol  [=(1)+(2)+(3)-(4)]
DOCKED: USER    Estimated Inhibition Constant, Ki   =    4.18 nM (nanomolar)  [Temperature = 298.15 K]
DOCKED: USER    
DOCKED: USER    (1) Final Intermolecular Energy     =  -14.41 kcal/mol
DOCKED: USER        vdW + Hbond + desolv Energy     =  -14.41 kcal/mol
DOCKED: USER        Electrostatic Energy            =   +0.00 kcal/mol
DOCKED: USER    (2) Final Total Internal Energy     =   -1.86 kcal/mol
DOCKED: USER    (3) Torsional Free Energy           =   +2.98 kcal/mol
DOCKED: USER    (4) Unbound System's Energy  [=(2)] =   -1.86 kcal/mol
DOCKED: USER    
DOCKED: USER    
DOCKED: USER    NEWDPF move ligand.dum.pdbqt
DOCKED: USER    NEWDPF about 1.858000 0.218000 -0.021000
DOCKED: USER    NEWDPF tran0 37.958436 16.849368 122.371436
DOCKED: USER    NEWDPF quaternion0 -0.125844 0.156483 0.976296 -0.080757
DOCKED: USER    NEWDPF axisangle0 -0.126256 0.156996 0.979496 -170.735894
DOCKED: USER    NEWDPF quat0 -0.126256 0.156996 0.979496 -170.735894
DOCKED: USER    NEWDPF dihe0 -178.17 69.50 20.10 -150.00 17.07 170.00 92.65 -89.38 -124.50 112.52 
DOCKED: USER  keepresnum = 1 
DOCKED: USER  
DOCKED: REMARK  Name = 
DOCKED: REMARK  12 active torsions:
DOCKED: REMARK  status: ('A' for Active; 'I' for Inactive)
DOCKED: REMARK    1  A    between atoms: C_2  and  O_3
DOCKED: REMARK    2  A    between atoms: O_3  and  C_4
DOCKED: REMARK    3  A    between atoms: C_4  and  C_5
DOCKED: REMARK    4  A    between atoms: C_10  and  C_11
DOCKED: REMARK    5  A    between atoms: C_11  and  N_12
DOCKED: REMARK    6  A    between atoms: N_12  and  C_13
DOCKED: REMARK    7  A    between atoms: N_12  and  C_15
DOCKED: REMARK    8  A    between atoms: C_13  and  C_14
DOCKED: REMARK    9  A    between atoms: C_15  and  C_16
DOCKED: REMARK   10  A    between atoms: N_21  and  C_22
DOCKED: REMARK   11  A    between atoms: C_25  and  C_26
DOCKED: REMARK   12  A    between atoms: N_27  and  O_28
DOCKED: REMARK                            x       y       z     vdW  Elec       q    Type
DOCKED: REMARK                         _______ _______ _______ _____ _____    ______ ____
DOCKED: USER                              x       y       z     vdW  Elec       q    Type
DOCKED: USER                           _______ _______ _______ _____ _____    ______ ____
DOCKED: ROOT
DOCKED: ATOM      1  C   UNL     1      37.907  17.937 123.605 -0.19 -0.00    +0.000 C 
DOCKED: ENDROOT
DOCKED: BRANCH   1   2
DOCKED: ATOM      2  C   UNL     1      39.384  17.701 123.475 -0.19 -0.00    +0.000 A 
DOCKED: ATOM      3  C   UNL     1      40.210  17.755 124.608 -0.22 -0.00    +0.000 A 
DOCKED: ATOM      4  C   UNL     1      41.590  17.572 124.488 -0.20 -0.00    +0.000 A 
DOCKED: ATOM      5  C   UNL     1      42.165  17.346 123.229 -0.32 -0.00    +0.000 A 
DOCKED: ATOM      6  C   UNL     1      43.550  17.162 123.099 -0.26 -0.00    +0.000 A 
DOCKED: ATOM      7  C   UNL     1      44.121  16.941 121.835 -0.27 -0.00    +0.000 A 
DOCKED: ATOM      8  C   UNL     1      43.296  16.901 120.700 -0.17 -0.00    +0.000 A 
DOCKED: ATOM      9  C   UNL     1      41.916  17.084 120.821 -0.14 -0.00    +0.000 A 
DOCKED: ATOM     10  C   UNL     1      41.341  17.306 122.080 -0.18 -0.00    +0.000 A 
DOCKED: ATOM     11  C   UNL     1      39.956  17.491 122.210 -0.14 -0.00    +0.000 A 
DOCKED: ATOM     12  CM  UNL     1      40.774  17.528 123.348 +0.00 -0.00    +0.000 AC
DOCKED: ATOM     13  CM  UNL     1      42.731  17.124 121.960 +0.00 -0.00    +0.000 AC
DOCKED: BRANCH   7  12
DOCKED: ATOM     14  C   UNL     1      45.604  16.724 121.689 -0.29 +0.00    +0.000 C 
DOCKED: BRANCH  12  13
DOCKED: ATOM     15  N   UNL     1      46.316  18.018 121.756 -0.15 -0.00    +0.000 N 
DOCKED: ATOM     16  H   UNL     1      46.751  18.188 120.850 +0.00 -0.00    +0.000 HD
DOCKED: BRANCH  13  15
DOCKED: ATOM     17  C   UNL     1      47.431  17.972 122.732 -0.26 -0.00    +0.000 C 
DOCKED: ATOM     18  C   UNL     1      47.369  16.724 123.611 -0.47 +0.00    +0.000 C 
DOCKED: ENDBRANCH  13  15
DOCKED: BRANCH  13  17
DOCKED: ATOM     19  C   UNL     1      45.385  19.158 121.951 -0.13 -0.00    +0.000 C 
DOCKED: ATOM     20  C   UNL     1      45.856  20.187 122.988 -0.14 -0.00    +0.000 C 
DOCKED: ENDBRANCH  13  17
DOCKED: ENDBRANCH  12  13
DOCKED: ENDBRANCH   7  12
DOCKED: ENDBRANCH   1   2
DOCKED: BRANCH   1  19
DOCKED: ATOM     21  O   UNL     1      37.238  17.337 122.501 -0.18 -0.00    +0.000 OA
DOCKED: BRANCH  19  21
DOCKED: ATOM     22  O   UNL     1      38.284  15.617 121.374 -0.23 -0.00    +0.000 OA
DOCKED: ATOM     23  C   UNL     1      37.381  15.986 122.175 -0.27 -0.00    +0.000 C 
DOCKED: ATOM     24  N   UNL     1      36.462  15.034 122.728 -0.36 -0.00    +0.000 N 
DOCKED: ATOM     25  H   UNL     1      35.682  15.380 123.219 -0.02 -0.00    +0.000 HD
DOCKED: BRANCH  22  24
DOCKED: ATOM     26  C   UNL     1      36.605  13.608 122.615 -0.43 -0.00    +0.000 A 
DOCKED: ATOM     27  C   UNL     1      36.739  13.029 121.346 -0.33 -0.00    +0.000 A 
DOCKED: ATOM     28  C   UNL     1      36.858  11.644 121.206 -0.43 -0.00    +0.000 A 
DOCKED: ATOM     29  C   UNL     1      36.836  10.806 122.335 -0.54 -0.00    +0.000 A 
DOCKED: ATOM     30  C   UNL     1      36.665  11.385 123.605 -0.61 -0.00    +0.000 A 
DOCKED: ATOM     31  C   UNL     1      36.547  12.772 123.744 -0.55 -0.00    +0.000 A 
DOCKED: ATOM     32  CM  UNL     1      36.708  12.207 122.475 +0.00 -0.00    +0.000 AC
DOCKED: BRANCH  27  30
DOCKED: ATOM     33  C   UNL     1      36.958   9.337 122.171 -0.66 -0.00    +0.000 C 
DOCKED: ATOM     34  N   UNL     1      37.058   8.465 123.303 -0.70 -0.00    +0.000 N 
DOCKED: ATOM     35  O   UNL     1      36.990   8.842 121.011 -2.69 -0.00    +0.000 OA
DOCKED: ATOM     36  H   UNL     1      37.120   8.843 124.210 -0.54 -0.00    +0.000 HD
DOCKED: BRANCH  31  34
DOCKED: ATOM     37  O   UNL     1      37.067   7.121 123.132 -1.93 -0.00    +0.000 OA
DOCKED: ATOM     38  H   UNL     1      37.315   6.913 122.218 -0.23 -0.00    +0.000 HD
DOCKED: ENDBRANCH  31  34
DOCKED: ENDBRANCH  27  30
DOCKED: ENDBRANCH  22  24
DOCKED: ENDBRANCH  19  21
DOCKED: ENDBRANCH   1  19
DOCKED: TORSDOF 10DOCKED: TER
DOCKED: ENDMDL
________________________________________________________________________________


	BEGINNING GENETIC ALGORITHM DOCKING 5 of 100
Run: 5 Seed: 1445875503 1112038820 [ Run 5 of 100 GA/GALS ]
Beginning LAMARCKIAN GENETIC ALGORITHM (LGA), with a maximum of 2500000 energy evaluations.

Final-Value: -15.956


	FINAL GENETIC ALGORITHM DOCKED STATE
	_______________________________________________


Detailed state:  trans 37.257 11.617 123.729 quatxyzw -0.408814 0.486403 0.641161 0.430344 center 1.858 0.218 -0.021 ntor 10 45.6144 -100.8438 -21.5826 121.6844 25.2340 -62.4237 -152.0421 -176.1642 24.1576 118.8954
State:	 37.257  11.617 123.729  -0.453  0.539  0.710 129.021     45.61 -100.84  -21.58  121.68   25.23  -62.42 -152.04 -176.16   24.16  118.90

DOCKED: MODEL        5
DOCKED: USER    Run = 5
DOCKED: USER    DPF = ligand_dock.biased.dpf
DOCKED: USER  
DOCKED: USER    Estimated Free Energy of Binding    =  -11.08 kcal/mol  [=(1)+(2)+(3)-(4)]
DOCKED: USER    Estimated Inhibition Constant, Ki   =    7.60 nM (nanomolar)  [Temperature = 298.15 K]
DOCKED: USER    
DOCKED: USER    (1) Final Intermolecular Energy     =  -14.06 kcal/mol
DOCKED: USER        vdW + Hbond + desolv Energy     =  -14.06 kcal/mol
DOCKED: USER        Electrostatic Energy            =   +0.00 kcal/mol
DOCKED: USER    (2) Final Total Internal Energy     =   -1.90 kcal/mol
DOCKED: USER    (3) Torsional Free Energy           =   +2.98 kcal/mol
DOCKED: USER    (4) Unbound System's Energy  [=(2)] =   -1.90 kcal/mol
DOCKED: USER    
DOCKED: USER    
DOCKED: USER    NEWDPF move ligand.dum.pdbqt
DOCKED: USER    NEWDPF about 1.858000 0.218000 -0.021000
DOCKED: USER    NEWDPF tran0 37.257432 11.616952 123.729427
DOCKED: USER    NEWDPF quaternion0 -0.408814 0.486403 0.641161 0.430344
DOCKED: USER    NEWDPF axisangle0 -0.452897 0.538852 0.710298 129.021184
DOCKED: USER    NEWDPF quat0 -0.452897 0.538852 0.710298 129.021184
DOCKED: USER    NEWDPF dihe0 45.61 -100.84 -21.58 121.68 25.23 -62.42 -152.04 -176.16 24.16 118.90 
DOCKED: USER  keepresnum = 1 
DOCKED: USER  
DOCKED: REMARK  Name = 
DOCKED: REMARK  12 active torsions:
DOCKED: REMARK  status: ('A' for Active; 'I' for Inactive)
DOCKED: REMARK    1  A    between atoms: C_2  and  O_3
DOCKED: REMARK    2  A    between atoms: O_3  and  C_4
DOCKED: REMARK    3  A    between atoms: C_4  and  C_5
DOCKED: REMARK    4  A    between atoms: C_10  and  C_11
DOCKED: REMARK    5  A    between atoms: C_11  and  N_12
DOCKED: REMARK    6  A    between atoms: N_12  and  C_13
DOCKED: REMARK    7  A    between atoms: N_12  and  C_15
DOCKED: REMARK    8  A    between atoms: C_13  and  C_14
DOCKED: REMARK    9  A    between atoms: C_15  and  C_16
DOCKED: REMARK   10  A    between atoms: N_21  and  C_22
DOCKED: REMARK   11  A    between atoms: C_25  and  C_26
DOCKED: REMARK   12  A    between atoms: N_27  and  O_28
DOCKED: REMARK                            x       y       z     vdW  Elec       q    Type
DOCKED: REMARK                         _______ _______ _______ _____ _____    ______ ____
DOCKED: USER                              x       y       z     vdW  Elec       q    Type
DOCKED: USER                           _______ _______ _______ _____ _____    ______ ____
DOCKED: ROOT
DOCKED: ATOM      1  C   UNL     1      35.788  12.277 123.393 -0.59 -0.00    +0.000 C 
DOCKED: ENDROOT
DOCKED: BRANCH   1   2
DOCKED: ATOM      2  C   UNL     1      36.678  13.484 123.336 -0.52 -0.00    +0.000 A 
DOCKED: ATOM      3  C   UNL     1      36.236  14.712 123.851 -0.43 -0.00    +0.000 A 
DOCKED: ATOM      4  C   UNL     1      37.046  15.847 123.769 -0.24 -0.00    +0.000 A 
DOCKED: ATOM      5  C   UNL     1      38.305  15.773 123.157 -0.25 -0.00    +0.000 A 
DOCKED: ATOM      6  C   UNL     1      39.125  16.909 123.069 -0.22 -0.00    +0.000 A 
DOCKED: ATOM      7  C   UNL     1      40.383  16.829 122.451 -0.22 -0.00    +0.000 A 
DOCKED: ATOM      8  C   UNL     1      40.820  15.604 121.923 -0.34 -0.00    +0.000 A 
DOCKED: ATOM      9  C   UNL     1      40.010  14.469 122.006 -0.25 -0.00    +0.000 A 
DOCKED: ATOM     10  C   UNL     1      38.752  14.542 122.621 -0.39 -0.00    +0.000 A 
DOCKED: ATOM     11  C   UNL     1      37.932  13.407 122.709 -0.41 -0.00    +0.000 A 
DOCKED: ATOM     12  CM  UNL     1      37.491  14.627 123.240 +0.00 -0.00    +0.000 AC
DOCKED: ATOM     13  CM  UNL     1      39.566  15.688 122.537 +0.00 -0.00    +0.000 AC
DOCKED: BRANCH   7  12
DOCKED: ATOM     14  C   UNL     1      41.277  18.039 122.369 -0.16 -0.00    +0.000 C 
DOCKED: BRANCH  12  13
DOCKED: ATOM     15  N   UNL     1      41.383  18.684 123.695 -0.19 -0.00    +0.000 N 
DOCKED: ATOM     16  H   UNL     1      42.247  19.224 123.717 -0.10 -0.00    +0.000 HD
DOCKED: BRANCH  13  15
DOCKED: ATOM     17  C   UNL     1      41.512  17.679 124.777 -0.19 -0.00    +0.000 C 
DOCKED: ATOM     18  C   UNL     1      40.869  18.157 126.079 -0.37 -0.00    +0.000 C 
DOCKED: ENDBRANCH  13  15
DOCKED: BRANCH  13  17
DOCKED: ATOM     19  C   UNL     1      40.306  19.681 123.918 -0.10 -0.00    +0.000 C 
DOCKED: ATOM     20  C   UNL     1      39.872  20.435 122.653 -0.03 -0.00    +0.000 C 
DOCKED: ENDBRANCH  13  17
DOCKED: ENDBRANCH  12  13
DOCKED: ENDBRANCH   7  12
DOCKED: ENDBRANCH   1   2
DOCKED: BRANCH   1  19
DOCKED: ATOM     21  O   UNL     1      36.593  11.104 123.467 -0.73 -0.00    +0.000 OA
DOCKED: BRANCH  19  21
DOCKED: ATOM     22  O   UNL     1      36.873   8.831 123.185 -1.46 -0.00    +0.000 OA
DOCKED: ATOM     23  C   UNL     1      36.139   9.850 123.051 -0.67 -0.00    +0.000 C 
DOCKED: ATOM     24  N   UNL     1      34.850   9.745 122.432 -0.59 -0.00    +0.000 N 
DOCKED: ATOM     25  H   UNL     1      34.380  10.580 122.204 -0.12 -0.00    +0.000 HD
DOCKED: BRANCH  22  24
DOCKED: ATOM     26  C   UNL     1      34.198   8.502 122.121 -0.61 -0.00    +0.000 A 
DOCKED: ATOM     27  C   UNL     1      33.895   7.607 123.157 -0.61 -0.00    +0.000 A 
DOCKED: ATOM     28  C   UNL     1      33.281   6.383 122.880 -0.62 -0.00    +0.000 A 
DOCKED: ATOM     29  C   UNL     1      32.963   6.024 121.559 -0.21 -0.00    +0.000 A 
DOCKED: ATOM     30  C   UNL     1      33.299   6.908 120.517 -0.36 -0.00    +0.000 A 
DOCKED: ATOM     31  C   UNL     1      33.913   8.133 120.795 -0.51 -0.00    +0.000 A 
DOCKED: ATOM     32  CM  UNL     1      33.592   7.259 121.839 +0.00 -0.00    +0.000 AC
DOCKED: BRANCH  27  30
DOCKED: ATOM     33  C   UNL     1      32.315   4.720 121.280 -0.28 -0.00    +0.000 C 
DOCKED: ATOM     34  N   UNL     1      32.027   4.300 119.941 -0.02 +0.00    +0.000 N 
DOCKED: ATOM     35  O   UNL     1      31.995   3.967 122.240 -0.31 -0.00    +0.000 OA
DOCKED: ATOM     36  H   UNL     1      32.192   4.912 119.188 -0.25 +0.00    +0.000 HD
DOCKED: BRANCH  31  34
DOCKED: ATOM     37  O   UNL     1      31.528   3.062 119.705 -1.09 -0.00    +0.000 OA
DOCKED: ATOM     38  H   UNL     1      31.736   2.482 120.453 -0.62 -0.00    +0.000 HD
DOCKED: ENDBRANCH  31  34
DOCKED: ENDBRANCH  27  30
DOCKED: ENDBRANCH  22  24
DOCKED: ENDBRANCH  19  21
DOCKED: ENDBRANCH   1  19
DOCKED: TORSDOF 10DOCKED: TER
DOCKED: ENDMDL
________________________________________________________________________________


	BEGINNING GENETIC ALGORITHM DOCKING 6 of 100
Run: 6 Seed: 1533361703 931730851 [ Run 6 of 100 GA/GALS ]
Beginning LAMARCKIAN GENETIC ALGORITHM (LGA), with a maximum of 2500000 energy evaluations.

Final-Value: -17.571


	FINAL GENETIC ALGORITHM DOCKED STATE
	_______________________________________________


Detailed state:  trans 36.931 16.926 121.079 quatxyzw 0.844063 -0.138789 -0.377288 0.354894 center 1.858 0.218 -0.021 ntor 10 -85.2503 53.5876 6.3813 -173.4231 -9.2558 168.7367 -180.0000 90.1026 -129.5785 180.0000
State:	 36.931  16.926 121.079   0.903 -0.148 -0.404 138.426    -85.25   53.59    6.38 -173.42   -9.26  168.74 -180.00   90.10 -129.58  180.00

DOCKED: MODEL        6
DOCKED: USER    Run = 6
DOCKED: USER    DPF = ligand_dock.biased.dpf
DOCKED: USER  
DOCKED: USER    Estimated Free Energy of Binding    =  -12.05 kcal/mol  [=(1)+(2)+(3)-(4)]
DOCKED: USER    Estimated Inhibition Constant, Ki   =    1.47 nM (nanomolar)  [Temperature = 298.15 K]
DOCKED: USER    
DOCKED: USER    (1) Final Intermolecular Energy     =  -15.03 kcal/mol
DOCKED: USER        vdW + Hbond + desolv Energy     =  -15.03 kcal/mol
DOCKED: USER        Electrostatic Energy            =   +0.00 kcal/mol
DOCKED: USER    (2) Final Total Internal Energy     =   -2.54 kcal/mol
DOCKED: USER    (3) Torsional Free Energy           =   +2.98 kcal/mol
DOCKED: USER    (4) Unbound System's Energy  [=(2)] =   -2.54 kcal/mol
DOCKED: USER    
DOCKED: USER    
DOCKED: USER    NEWDPF move ligand.dum.pdbqt
DOCKED: USER    NEWDPF about 1.858000 0.218000 -0.021000
DOCKED: USER    NEWDPF tran0 36.930695 16.926126 121.078896
DOCKED: USER    NEWDPF quaternion0 0.844063 -0.138789 -0.377288 0.354894
DOCKED: USER    NEWDPF axisangle0 0.902831 -0.148452 -0.403557 138.426086
DOCKED: USER    NEWDPF quat0 0.902831 -0.148452 -0.403557 138.426086
DOCKED: USER    NEWDPF dihe0 -85.25 53.59 6.38 -173.42 -9.26 168.74 -180.00 90.10 -129.58 180.00 
DOCKED: USER  keepresnum = 1 
DOCKED: USER  
DOCKED: REMARK  Name = 
DOCKED: REMARK  12 active torsions:
DOCKED: REMARK  status: ('A' for Active; 'I' for Inactive)
DOCKED: REMARK    1  A    between atoms: C_2  and  O_3
DOCKED: REMARK    2  A    between atoms: O_3  and  C_4
DOCKED: REMARK    3  A    between atoms: C_4  and  C_5
DOCKED: REMARK    4  A    between atoms: C_10  and  C_11
DOCKED: REMARK    5  A    between atoms: C_11  and  N_12
DOCKED: REMARK    6  A    between atoms: N_12  and  C_13
DOCKED: REMARK    7  A    between atoms: N_12  and  C_15
DOCKED: REMARK    8  A    between atoms: C_13  and  C_14
DOCKED: REMARK    9  A    between atoms: C_15  and  C_16
DOCKED: REMARK   10  A    between atoms: N_21  and  C_22
DOCKED: REMARK   11  A    between atoms: C_25  and  C_26
DOCKED: REMARK   12  A    between atoms: N_27  and  O_28
DOCKED: REMARK                            x       y       z     vdW  Elec       q    Type
DOCKED: REMARK                         _______ _______ _______ _____ _____    ______ ____
DOCKED: USER                              x       y       z     vdW  Elec       q    Type
DOCKED: USER                           _______ _______ _______ _____ _____    ______ ____
DOCKED: ROOT
DOCKED: ATOM      1  C   UNL     1      36.347  18.444 120.825 -0.17 -0.00    +0.000 C 
DOCKED: ENDROOT
DOCKED: BRANCH   1   2
DOCKED: ATOM      2  C   UNL     1      35.732  18.105 122.151 -0.23 -0.00    +0.000 A 
DOCKED: ATOM      3  C   UNL     1      34.588  17.296 122.213 -0.33 -0.00    +0.000 A 
DOCKED: ATOM      4  C   UNL     1      33.990  17.006 123.442 -0.21 -0.00    +0.000 A 
DOCKED: ATOM      5  C   UNL     1      34.522  17.535 124.627 -0.37 -0.00    +0.000 A 
DOCKED: ATOM      6  C   UNL     1      33.927  17.251 125.866 -0.36 -0.00    +0.000 A 
DOCKED: ATOM      7  C   UNL     1      34.461  17.788 127.049 -0.19 -0.00    +0.000 A 
DOCKED: ATOM      8  C   UNL     1      35.598  18.609 126.986 -0.14 -0.00    +0.000 A 
DOCKED: ATOM      9  C   UNL     1      36.195  18.898 125.756 -0.17 -0.00    +0.000 A 
DOCKED: ATOM     10  C   UNL     1      35.666  18.366 124.572 -0.23 -0.00    +0.000 A 
DOCKED: ATOM     11  C   UNL     1      36.260  18.650 123.332 -0.18 -0.00    +0.000 A 
DOCKED: ATOM     12  CM  UNL     1      35.127  17.826 123.389 -0.07 -0.00    +0.000 AC
DOCKED: ATOM     13  CM  UNL     1      35.062  18.075 125.809 -0.29 -0.00    +0.000 AC
DOCKED: BRANCH   7  12
DOCKED: ATOM     14  C   UNL     1      33.840  17.472 128.385 -0.28 -0.00    +0.000 C 
DOCKED: BRANCH  12  13
DOCKED: ATOM     15  N   UNL     1      32.646  18.315 128.602 -0.19 -0.00    +0.000 N 
DOCKED: ATOM     16  H   UNL     1      32.655  18.634 129.570 +0.01 -0.00    +0.000 HD
DOCKED: BRANCH  13  15
DOCKED: ATOM     17  C   UNL     1      31.396  17.533 128.450 -0.40 -0.00    +0.000 C 
DOCKED: ATOM     18  C   UNL     1      31.063  16.738 129.712 -0.44 -0.00    +0.000 C 
DOCKED: ENDBRANCH  13  15
DOCKED: BRANCH  13  17
DOCKED: ATOM     19  C   UNL     1      32.686  19.559 127.792 -0.18 -0.00    +0.000 C 
DOCKED: ATOM     20  C   UNL     1      31.512  19.714 126.814 -0.29 -0.00    +0.000 C 
DOCKED: ENDBRANCH  13  17
DOCKED: ENDBRANCH  12  13
DOCKED: ENDBRANCH   7  12
DOCKED: ENDBRANCH   1   2
DOCKED: BRANCH   1  19
DOCKED: ATOM     21  O   UNL     1      37.316  17.455 120.491 -0.11 -0.00    +0.000 OA
DOCKED: BRANCH  19  21
DOCKED: ATOM     22  O   UNL     1      36.575  15.497 119.521 -0.23 -0.00    +0.000 OA
DOCKED: ATOM     23  C   UNL     1      37.043  16.085 120.535 -0.20 -0.00    +0.000 C 
DOCKED: ATOM     24  N   UNL     1      37.261  15.370 121.758 -0.25 -0.00    +0.000 N 
DOCKED: ATOM     25  H   UNL     1      37.475  15.893 122.565 -0.00 -0.00    +0.000 HD
DOCKED: BRANCH  22  24
DOCKED: ATOM     26  C   UNL     1      37.188  13.940 121.886 -0.37 -0.00    +0.000 A 
DOCKED: ATOM     27  C   UNL     1      37.567  13.133 120.805 -0.42 -0.00    +0.000 A 
DOCKED: ATOM     28  C   UNL     1      37.486  11.741 120.895 -0.40 -0.00    +0.000 A 
DOCKED: ATOM     29  C   UNL     1      37.015  11.126 122.068 -0.49 -0.00    +0.000 A 
DOCKED: ATOM     30  C   UNL     1      36.602  11.938 123.140 -0.61 -0.00    +0.000 A 
DOCKED: ATOM     31  C   UNL     1      36.685  13.331 123.049 -0.52 -0.00    +0.000 A 
DOCKED: ATOM     32  CM  UNL     1      37.091  12.535 121.974 +0.00 -0.00    +0.000 AC
DOCKED: BRANCH  27  30
DOCKED: ATOM     33  C   UNL     1      36.931   9.647 122.148 -0.63 -0.00    +0.000 C 
DOCKED: ATOM     34  N   UNL     1      37.125   8.954 123.387 -0.59 -0.00    +0.000 N 
DOCKED: ATOM     35  O   UNL     1      36.697   8.981 121.103 -2.62 -0.00    +0.000 OA
DOCKED: ATOM     36  H   UNL     1      37.391   9.453 124.192 -0.62 -0.00    +0.000 HD
DOCKED: BRANCH  31  34
DOCKED: ATOM     37  O   UNL     1      36.942   7.613 123.455 -2.19 -0.00    +0.000 OA
DOCKED: ATOM     38  H   UNL     1      36.782   7.263 122.565 -0.05 -0.00    +0.000 HD
DOCKED: ENDBRANCH  31  34
DOCKED: ENDBRANCH  27  30
DOCKED: ENDBRANCH  22  24
DOCKED: ENDBRANCH  19  21
DOCKED: ENDBRANCH   1  19
DOCKED: TORSDOF 10DOCKED: TER
DOCKED: ENDMDL
________________________________________________________________________________


	BEGINNING GENETIC ALGORITHM DOCKING 7 of 100
Run: 7 Seed: 1247322231 669591772 [ Run 7 of 100 GA/GALS ]
Beginning LAMARCKIAN GENETIC ALGORITHM (LGA), with a maximum of 2500000 energy evaluations.

Final-Value: -16.854


	FINAL GENETIC ALGORITHM DOCKED STATE
	_______________________________________________


Detailed state:  trans 37.412 17.486 124.415 quatxyzw -0.355868 0.801090 0.373315 -0.303724 center 1.858 0.218 -0.021 ntor 10 -76.1043 -164.4589 12.5429 -38.6650 167.8072 -75.1751 -91.1961 4.6693 88.3457 33.1808
State:	 37.412  17.486 124.415  -0.374  0.841  0.392 -144.637    -76.10 -164.46   12.54  -38.66  167.81  -75.18  -91.20    4.67   88.35   33.18

DOCKED: MODEL        7
DOCKED: USER    Run = 7
DOCKED: USER    DPF = ligand_dock.biased.dpf
DOCKED: USER  
DOCKED: USER    Estimated Free Energy of Binding    =  -11.73 kcal/mol  [=(1)+(2)+(3)-(4)]
DOCKED: USER    Estimated Inhibition Constant, Ki   =    2.53 nM (nanomolar)  [Temperature = 298.15 K]
DOCKED: USER    
DOCKED: USER    (1) Final Intermolecular Energy     =  -14.71 kcal/mol
DOCKED: USER        vdW + Hbond + desolv Energy     =  -14.71 kcal/mol
DOCKED: USER        Electrostatic Energy            =   +0.00 kcal/mol
DOCKED: USER    (2) Final Total Internal Energy     =   -2.14 kcal/mol
DOCKED: USER    (3) Torsional Free Energy           =   +2.98 kcal/mol
DOCKED: USER    (4) Unbound System's Energy  [=(2)] =   -2.14 kcal/mol
DOCKED: USER    
DOCKED: USER    
DOCKED: USER    NEWDPF move ligand.dum.pdbqt
DOCKED: USER    NEWDPF about 1.858000 0.218000 -0.021000
DOCKED: USER    NEWDPF tran0 37.411858 17.486292 124.414580
DOCKED: USER    NEWDPF quaternion0 -0.355868 0.801090 0.373315 -0.303724
DOCKED: USER    NEWDPF axisangle0 -0.373512 0.840810 0.391825 -144.637214
DOCKED: USER    NEWDPF quat0 -0.373512 0.840810 0.391825 -144.637214
DOCKED: USER    NEWDPF dihe0 -76.10 -164.46 12.54 -38.66 167.81 -75.18 -91.20 4.67 88.35 33.18 
DOCKED: USER  keepresnum = 1 
DOCKED: USER  
DOCKED: REMARK  Name = 
DOCKED: REMARK  12 active torsions:
DOCKED: REMARK  status: ('A' for Active; 'I' for Inactive)
DOCKED: REMARK    1  A    between atoms: C_2  and  O_3
DOCKED: REMARK    2  A    between atoms: O_3  and  C_4
DOCKED: REMARK    3  A    between atoms: C_4  and  C_5
DOCKED: REMARK    4  A    between atoms: C_10  and  C_11
DOCKED: REMARK    5  A    between atoms: C_11  and  N_12
DOCKED: REMARK    6  A    between atoms: N_12  and  C_13
DOCKED: REMARK    7  A    between atoms: N_12  and  C_15
DOCKED: REMARK    8  A    between atoms: C_13  and  C_14
DOCKED: REMARK    9  A    between atoms: C_15  and  C_16
DOCKED: REMARK   10  A    between atoms: N_21  and  C_22
DOCKED: REMARK   11  A    between atoms: C_25  and  C_26
DOCKED: REMARK   12  A    between atoms: N_27  and  O_28
DOCKED: REMARK                            x       y       z     vdW  Elec       q    Type
DOCKED: REMARK                         _______ _______ _______ _____ _____    ______ ____
DOCKED: USER                              x       y       z     vdW  Elec       q    Type
DOCKED: USER                           _______ _______ _______ _____ _____    ______ ____
DOCKED: ROOT
DOCKED: ATOM      1  C   UNL     1      38.356  18.454 123.476 -0.15 -0.00    +0.000 C 
DOCKED: ENDROOT
DOCKED: BRANCH   1   2
DOCKED: ATOM      2  C   UNL     1      39.115  18.460 124.771 -0.19 -0.00    +0.000 A 
DOCKED: ATOM      3  C   UNL     1      40.503  18.258 124.777 -0.27 -0.00    +0.000 A 
DOCKED: ATOM      4  C   UNL     1      41.210  18.228 125.982 -0.29 -0.00    +0.000 A 
DOCKED: ATOM      5  C   UNL     1      40.534  18.385 127.200 -0.33 -0.00    +0.000 A 
DOCKED: ATOM      6  C   UNL     1      41.236  18.355 128.415 -0.37 -0.00    +0.000 A 
DOCKED: ATOM      7  C   UNL     1      40.553  18.508 129.633 -0.23 -0.00    +0.000 A 
DOCKED: ATOM      8  C   UNL     1      39.162  18.696 129.628 -0.17 -0.00    +0.000 A 
DOCKED: ATOM      9  C   UNL     1      38.456  18.726 128.423 -0.16 -0.00    +0.000 A 
DOCKED: ATOM     10  C   UNL     1      39.131  18.573 127.204 -0.16 -0.00    +0.000 A 
DOCKED: ATOM     11  C   UNL     1      38.431  18.603 125.989 -0.10 -0.00    +0.000 A 
DOCKED: ATOM     12  CM  UNL     1      39.820  18.418 125.987 +0.00 -0.00    +0.000 AC
DOCKED: ATOM     13  CM  UNL     1      39.845  18.540 128.417 +0.00 -0.00    +0.000 AC
DOCKED: BRANCH   7  12
DOCKED: ATOM     14  C   UNL     1      41.300  18.495 130.940 -0.22 -0.00    +0.000 C 
DOCKED: BRANCH  12  13
DOCKED: ATOM     15  N   UNL     1      42.614  19.155 130.781 -0.16 -0.00    +0.000 N 
DOCKED: ATOM     16  H   UNL     1      42.723  19.411 129.800 -0.00 -0.00    +0.000 HD
DOCKED: BRANCH  13  15
DOCKED: ATOM     17  C   UNL     1      43.727  18.223 131.078 -0.32 -0.00    +0.000 C 
DOCKED: ATOM     18  C   UNL     1      44.190  17.472 129.830 -0.39 -0.00    +0.000 C 
DOCKED: ENDBRANCH  13  15
DOCKED: BRANCH  13  17
DOCKED: ATOM     19  C   UNL     1      42.686  20.441 131.519 -0.06 -0.00    +0.000 C 
DOCKED: ATOM     20  C   UNL     1      42.420  21.681 130.653 -0.03 -0.00    +0.000 C 
DOCKED: ENDBRANCH  13  17
DOCKED: ENDBRANCH  12  13
DOCKED: ENDBRANCH   7  12
DOCKED: ENDBRANCH   1   2
DOCKED: BRANCH   1  19
DOCKED: ATOM     21  O   UNL     1      37.330  17.468 123.539 -0.23 -0.00    +0.000 OA
DOCKED: BRANCH  19  21
DOCKED: ATOM     22  O   UNL     1      38.654  15.774 122.701 -0.32 -0.00    +0.000 OA
DOCKED: ATOM     23  C   UNL     1      37.520  16.153 123.108 -0.31 -0.00    +0.000 C 
DOCKED: ATOM     24  N   UNL     1      36.403  15.255 123.093 -0.39 -0.00    +0.000 N 
DOCKED: ATOM     25  H   UNL     1      35.509  15.631 123.267 -0.01 -0.00    +0.000 HD
DOCKED: BRANCH  22  24
DOCKED: ATOM     26  C   UNL     1      36.498  13.843 122.843 -0.43 -0.00    +0.000 A 
DOCKED: ATOM     27  C   UNL     1      36.042  12.940 123.813 -0.54 -0.00    +0.000 A 
DOCKED: ATOM     28  C   UNL     1      36.143  11.562 123.605 -0.61 -0.00    +0.000 A 
DOCKED: ATOM     29  C   UNL     1      36.712  11.057 122.423 -0.58 -0.00    +0.000 A 
DOCKED: ATOM     30  C   UNL     1      37.202  11.964 121.465 -0.46 -0.00    +0.000 A 
DOCKED: ATOM     31  C   UNL     1      37.099  13.343 121.675 -0.41 -0.00    +0.000 A 
DOCKED: ATOM     32  CM  UNL     1      36.616  12.451 122.638 +0.00 -0.00    +0.000 AC
DOCKED: BRANCH  27  30
DOCKED: ATOM     33  C   UNL     1      36.817   9.592 122.217 -0.67 -0.00    +0.000 C 
DOCKED: ATOM     34  N   UNL     1      37.072   8.701 123.309 -0.66 -0.00    +0.000 N 
DOCKED: ATOM     35  O   UNL     1      36.693   9.118 121.055 -2.61 -0.00    +0.000 OA
DOCKED: ATOM     36  H   UNL     1      37.255   9.064 124.206 -0.59 -0.00    +0.000 HD
DOCKED: BRANCH  31  34
DOCKED: ATOM     37  O   UNL     1      37.063   7.360 123.113 -2.17 -0.00    +0.000 OA
DOCKED: ATOM     38  H   UNL     1      37.066   7.172 122.162 -0.10 -0.00    +0.000 HD
DOCKED: ENDBRANCH  31  34
DOCKED: ENDBRANCH  27  30
DOCKED: ENDBRANCH  22  24
DOCKED: ENDBRANCH  19  21
DOCKED: ENDBRANCH   1  19
DOCKED: TORSDOF 10DOCKED: TER
DOCKED: ENDMDL
________________________________________________________________________________


	BEGINNING GENETIC ALGORITHM DOCKING 8 of 100
Run: 8 Seed: 1883265506 1308086965 [ Run 8 of 100 GA/GALS ]
Beginning LAMARCKIAN GENETIC ALGORITHM (LGA), with a maximum of 2500000 energy evaluations.

Final-Value: -17.291


	FINAL GENETIC ALGORITHM DOCKED STATE
	_______________________________________________


Detailed state:  trans 35.912 16.851 124.123 quatxyzw 0.918486 -0.195256 -0.314460 0.139190 center 1.858 0.218 -0.021 ntor 10 -49.8258 171.0336 24.7774 -106.1056 12.3905 -50.8996 -131.8449 -6.8974 -89.4718 33.8164
State:	 35.912  16.851 124.123   0.928 -0.197 -0.318 163.998    -49.83  171.03   24.78 -106.11   12.39  -50.90 -131.84   -6.90  -89.47   33.82

DOCKED: MODEL        8
DOCKED: USER    Run = 8
DOCKED: USER    DPF = ligand_dock.biased.dpf
DOCKED: USER  
DOCKED: USER    Estimated Free Energy of Binding    =  -12.20 kcal/mol  [=(1)+(2)+(3)-(4)]
DOCKED: USER    Estimated Inhibition Constant, Ki   =    1.13 nM (nanomolar)  [Temperature = 298.15 K]
DOCKED: USER    
DOCKED: USER    (1) Final Intermolecular Energy     =  -15.19 kcal/mol
DOCKED: USER        vdW + Hbond + desolv Energy     =  -15.19 kcal/mol
DOCKED: USER        Electrostatic Energy            =   +0.00 kcal/mol
DOCKED: USER    (2) Final Total Internal Energy     =   -2.10 kcal/mol
DOCKED: USER    (3) Torsional Free Energy           =   +2.98 kcal/mol
DOCKED: USER    (4) Unbound System's Energy  [=(2)] =   -2.10 kcal/mol
DOCKED: USER    
DOCKED: USER    
DOCKED: USER    NEWDPF move ligand.dum.pdbqt
DOCKED: USER    NEWDPF about 1.858000 0.218000 -0.021000
DOCKED: USER    NEWDPF tran0 35.912353 16.850930 124.122809
DOCKED: USER    NEWDPF quaternion0 0.918486 -0.195256 -0.314460 0.139190
DOCKED: USER    NEWDPF axisangle0 0.927515 -0.197175 -0.317551 163.998005
DOCKED: USER    NEWDPF quat0 0.927515 -0.197175 -0.317551 163.998005
DOCKED: USER    NEWDPF dihe0 -49.83 171.03 24.78 -106.11 12.39 -50.90 -131.84 -6.90 -89.47 33.82 
DOCKED: USER  keepresnum = 1 
DOCKED: USER  
DOCKED: REMARK  Name = 
DOCKED: REMARK  12 active torsions:
DOCKED: REMARK  status: ('A' for Active; 'I' for Inactive)
DOCKED: REMARK    1  A    between atoms: C_2  and  O_3
DOCKED: REMARK    2  A    between atoms: O_3  and  C_4
DOCKED: REMARK    3  A    between atoms: C_4  and  C_5
DOCKED: REMARK    4  A    between atoms: C_10  and  C_11
DOCKED: REMARK    5  A    between atoms: C_11  and  N_12
DOCKED: REMARK    6  A    between atoms: N_12  and  C_13
DOCKED: REMARK    7  A    between atoms: N_12  and  C_15
DOCKED: REMARK    8  A    between atoms: C_13  and  C_14
DOCKED: REMARK    9  A    between atoms: C_15  and  C_16
DOCKED: REMARK   10  A    between atoms: N_21  and  C_22
DOCKED: REMARK   11  A    between atoms: C_25  and  C_26
DOCKED: REMARK   12  A    between atoms: N_27  and  O_28
DOCKED: REMARK                            x       y       z     vdW  Elec       q    Type
DOCKED: REMARK                         _______ _______ _______ _____ _____    ______ ____
DOCKED: USER                              x       y       z     vdW  Elec       q    Type
DOCKED: USER                           _______ _______ _______ _____ _____    ______ ____
DOCKED: ROOT
DOCKED: ATOM      1  C   UNL     1      35.307  18.044 123.164 -0.31 -0.00    +0.000 C 
DOCKED: ENDROOT
DOCKED: BRANCH   1   2
DOCKED: ATOM      2  C   UNL     1      34.609  18.321 124.464 -0.29 -0.00    +0.000 A 
DOCKED: ATOM      3  C   UNL     1      34.540  19.631 124.962 -0.04 -0.00    +0.000 A 
DOCKED: ATOM      4  C   UNL     1      33.924  19.891 126.189 -0.19 -0.00    +0.000 A 
DOCKED: ATOM      5  C   UNL     1      33.379  18.840 126.941 -0.23 -0.00    +0.000 A 
DOCKED: ATOM      6  C   UNL     1      32.759  19.092 128.175 -0.14 -0.00    +0.000 A 
DOCKED: ATOM      7  C   UNL     1      32.219  18.035 128.926 -0.22 -0.00    +0.000 A 
DOCKED: ATOM      8  C   UNL     1      32.301  16.723 128.434 -0.40 -0.00    +0.000 A 
DOCKED: ATOM      9  C   UNL     1      32.918  16.464 127.207 -0.32 -0.00    +0.000 A 
DOCKED: ATOM     10  C   UNL     1      33.459  17.514 126.453 -0.32 -0.00    +0.000 A 
DOCKED: ATOM     11  C   UNL     1      34.080  17.263 125.220 -0.39 -0.00    +0.000 A 
DOCKED: ATOM     12  CM  UNL     1      33.999  18.576 125.705 -0.13 -0.00    +0.000 AC
DOCKED: ATOM     13  CM  UNL     1      32.839  17.777 127.689 +0.00 -0.00    +0.000 AC
DOCKED: BRANCH   7  12
DOCKED: ATOM     14  C   UNL     1      31.535  18.298 130.242 -0.24 -0.00    +0.000 C 
DOCKED: BRANCH  12  13
DOCKED: ATOM     15  N   UNL     1      30.372  19.188 130.041 -0.25 -0.00    +0.000 N 
DOCKED: ATOM     16  H   UNL     1      30.720  20.120 129.820 +0.01 -0.00    +0.000 HD
DOCKED: BRANCH  13  15
DOCKED: ATOM     17  C   UNL     1      29.584  19.340 131.287 -0.27 -0.00    +0.000 C 
DOCKED: ATOM     18  C   UNL     1      29.590  20.781 131.793 -0.28 -0.00    +0.000 C 
DOCKED: ENDBRANCH  13  15
DOCKED: BRANCH  13  17
DOCKED: ATOM     19  C   UNL     1      29.566  18.794 128.858 -0.35 -0.00    +0.000 C 
DOCKED: ATOM     20  C   UNL     1      29.413  19.898 127.802 -0.44 -0.00    +0.000 C 
DOCKED: ENDBRANCH  13  17
DOCKED: ENDBRANCH  12  13
DOCKED: ENDBRANCH   7  12
DOCKED: ENDBRANCH   1   2
DOCKED: BRANCH   1  19
DOCKED: ATOM     21  O   UNL     1      36.324  17.070 123.377 -0.28 -0.00    +0.000 OA
DOCKED: BRANCH  19  21
DOCKED: ATOM     22  O   UNL     1      34.920  15.262 123.082 -0.44 -0.00    +0.000 OA
DOCKED: ATOM     23  C   UNL     1      36.093  15.698 123.249 -0.42 -0.00    +0.000 C 
DOCKED: ATOM     24  N   UNL     1      37.200  14.792 123.352 -0.42 -0.00    +0.000 N 
DOCKED: ATOM     25  H   UNL     1      38.068  15.158 123.638 -0.03 -0.00    +0.000 HD
DOCKED: BRANCH  22  24
DOCKED: ATOM     26  C   UNL     1      37.127  13.385 123.066 -0.51 -0.00    +0.000 A 
DOCKED: ATOM     27  C   UNL     1      37.185  12.950 121.735 -0.45 -0.00    +0.000 A 
DOCKED: ATOM     28  C   UNL     1      37.095  11.590 121.428 -0.47 -0.00    +0.000 A 
DOCKED: ATOM     29  C   UNL     1      36.935  10.635 122.447 -0.52 -0.00    +0.000 A 
DOCKED: ATOM     30  C   UNL     1      36.841  11.076 123.780 -0.48 -0.00    +0.000 A 
DOCKED: ATOM     31  C   UNL     1      36.933  12.437 124.086 -0.19 -0.00    +0.000 A 
DOCKED: ATOM     32  CM  UNL     1      37.019  12.012 122.757 +0.00 -0.00    +0.000 AC
DOCKED: BRANCH  27  30
DOCKED: ATOM     33  C   UNL     1      36.837   9.195 122.106 -0.70 -0.00    +0.000 C 
DOCKED: ATOM     34  N   UNL     1      36.892   8.182 123.117 -0.73 -0.00    +0.000 N 
DOCKED: ATOM     35  O   UNL     1      36.715   8.850 120.899 -2.62 -0.00    +0.000 OA
DOCKED: ATOM     36  H   UNL     1      37.072   8.432 124.052 -0.38 -0.00    +0.000 HD
DOCKED: BRANCH  31  34
DOCKED: ATOM     37  O   UNL     1      36.698   6.881 122.793 -1.54 -0.00    +0.000 OA
DOCKED: ATOM     38  H   UNL     1      36.921   6.744 121.859 -0.20 -0.00    +0.000 HD
DOCKED: ENDBRANCH  31  34
DOCKED: ENDBRANCH  27  30
DOCKED: ENDBRANCH  22  24
DOCKED: ENDBRANCH  19  21
DOCKED: ENDBRANCH   1  19
DOCKED: TORSDOF 10DOCKED: TER
DOCKED: ENDMDL
________________________________________________________________________________


	BEGINNING GENETIC ALGORITHM DOCKING 9 of 100
Run: 9 Seed: 1324651903 1286013590 [ Run 9 of 100 GA/GALS ]
Beginning LAMARCKIAN GENETIC ALGORITHM (LGA), with a maximum of 2500000 energy evaluations.

Final-Value: -19.052


	FINAL GENETIC ALGORITHM DOCKED STATE
	_______________________________________________


Detailed state:  trans 36.875 16.762 123.884 quatxyzw -0.920238 -0.026824 0.338749 -0.194142 center 1.858 0.218 -0.021 ntor 10 67.8450 158.0509 37.2880 131.3737 -173.4836 154.7405 -111.6494 169.5400 -96.7695 -177.3194
State:	 36.875  16.762 123.884  -0.938 -0.027  0.345 -157.611     67.85  158.05   37.29  131.37 -173.48  154.74 -111.65  169.54  -96.77 -177.32

DOCKED: MODEL        9
DOCKED: USER    Run = 9
DOCKED: USER    DPF = ligand_dock.biased.dpf
DOCKED: USER  
DOCKED: USER    Estimated Free Energy of Binding    =  -13.97 kcal/mol  [=(1)+(2)+(3)-(4)]
DOCKED: USER    Estimated Inhibition Constant, Ki   =   57.20 pM (picomolar)  [Temperature = 298.15 K]
DOCKED: USER    
DOCKED: USER    (1) Final Intermolecular Energy     =  -16.96 kcal/mol
DOCKED: USER        vdW + Hbond + desolv Energy     =  -16.96 kcal/mol
DOCKED: USER        Electrostatic Energy            =   +0.00 kcal/mol
DOCKED: USER    (2) Final Total Internal Energy     =   -2.10 kcal/mol
DOCKED: USER    (3) Torsional Free Energy           =   +2.98 kcal/mol
DOCKED: USER    (4) Unbound System's Energy  [=(2)] =   -2.10 kcal/mol
DOCKED: USER    
DOCKED: USER    
DOCKED: USER    NEWDPF move ligand.dum.pdbqt
DOCKED: USER    NEWDPF about 1.858000 0.218000 -0.021000
DOCKED: USER    NEWDPF tran0 36.874733 16.762399 123.884241
DOCKED: USER    NEWDPF quaternion0 -0.920238 -0.026824 0.338749 -0.194142
DOCKED: USER    NEWDPF axisangle0 -0.938087 -0.027344 0.345319 -157.610817
DOCKED: USER    NEWDPF quat0 -0.938087 -0.027344 0.345319 -157.610817
DOCKED: USER    NEWDPF dihe0 67.85 158.05 37.29 131.37 -173.48 154.74 -111.65 169.54 -96.77 -177.32 
DOCKED: USER  keepresnum = 1 
DOCKED: USER  
DOCKED: REMARK  Name = 
DOCKED: REMARK  12 active torsions:
DOCKED: REMARK  status: ('A' for Active; 'I' for Inactive)
DOCKED: REMARK    1  A    between atoms: C_2  and  O_3
DOCKED: REMARK    2  A    between atoms: O_3  and  C_4
DOCKED: REMARK    3  A    between atoms: C_4  and  C_5
DOCKED: REMARK    4  A    between atoms: C_10  and  C_11
DOCKED: REMARK    5  A    between atoms: C_11  and  N_12
DOCKED: REMARK    6  A    between atoms: N_12  and  C_13
DOCKED: REMARK    7  A    between atoms: N_12  and  C_15
DOCKED: REMARK    8  A    between atoms: C_13  and  C_14
DOCKED: REMARK    9  A    between atoms: C_15  and  C_16
DOCKED: REMARK   10  A    between atoms: N_21  and  C_22
DOCKED: REMARK   11  A    between atoms: C_25  and  C_26
DOCKED: REMARK   12  A    between atoms: N_27  and  O_28
DOCKED: REMARK                            x       y       z     vdW  Elec       q    Type
DOCKED: REMARK                         _______ _______ _______ _____ _____    ______ ____
DOCKED: USER                              x       y       z     vdW  Elec       q    Type
DOCKED: USER                           _______ _______ _______ _____ _____    ______ ____
DOCKED: ROOT
DOCKED: ATOM      1  C   UNL     1      35.857  17.850 123.185 -0.27 -0.00    +0.000 C 
DOCKED: ENDROOT
DOCKED: BRANCH   1   2
DOCKED: ATOM      2  C   UNL     1      35.118  17.518 124.448 -0.33 -0.00    +0.000 A 
DOCKED: ATOM      3  C   UNL     1      34.409  16.312 124.555 -0.48 -0.00    +0.000 A 
DOCKED: ATOM      4  C   UNL     1      33.690  16.013 125.715 -0.26 -0.00    +0.000 A 
DOCKED: ATOM      5  C   UNL     1      33.658  16.925 126.780 -0.37 -0.00    +0.000 A 
DOCKED: ATOM      6  C   UNL     1      32.937  16.634 127.948 -0.39 -0.00    +0.000 A 
DOCKED: ATOM      7  C   UNL     1      32.904  17.553 129.009 -0.24 -0.00    +0.000 A 
DOCKED: ATOM      8  C   UNL     1      33.601  18.766 128.896 -0.11 -0.00    +0.000 A 
DOCKED: ATOM      9  C   UNL     1      34.321  19.064 127.737 -0.13 -0.00    +0.000 A 
DOCKED: ATOM     10  C   UNL     1      34.356  18.151 126.673 -0.25 -0.00    +0.000 A 
DOCKED: ATOM     11  C   UNL     1      35.077  18.442 125.505 -0.25 -0.00    +0.000 A 
DOCKED: ATOM     12  CM  UNL     1      34.385  17.227 125.612 -0.26 -0.00    +0.000 AC
DOCKED: ATOM     13  CM  UNL     1      33.629  17.849 127.840 +0.00 -0.00    +0.000 AC
DOCKED: BRANCH   7  12
DOCKED: ATOM     14  C   UNL     1      32.148  17.240 130.274 -0.31 -0.00    +0.000 C 
DOCKED: BRANCH  12  13
DOCKED: ATOM     15  N   UNL     1      30.781  17.798 130.200 -0.34 -0.00    +0.000 N 
DOCKED: ATOM     16  H   UNL     1      30.230  17.386 130.953 -0.39 -0.00    +0.000 HD
DOCKED: BRANCH  13  15
DOCKED: ATOM     17  C   UNL     1      30.102  17.403 128.944 -0.44 -0.00    +0.000 C 
DOCKED: ATOM     18  C   UNL     1      29.574  18.614 128.175 -0.44 -0.00    +0.000 C 
DOCKED: ENDBRANCH  13  15
DOCKED: BRANCH  13  17
DOCKED: ATOM     19  C   UNL     1      30.759  19.258 130.469 -0.22 -0.00    +0.000 C 
DOCKED: ATOM     20  C   UNL     1      29.640  19.708 131.420 -0.31 -0.00    +0.000 C 
DOCKED: ENDBRANCH  13  17
DOCKED: ENDBRANCH  12  13
DOCKED: ENDBRANCH   7  12
DOCKED: ENDBRANCH   1   2
DOCKED: BRANCH   1  19
DOCKED: ATOM     21  O   UNL     1      37.167  17.296 123.249 -0.23 -0.00    +0.000 OA
DOCKED: BRANCH  19  21
DOCKED: ATOM     22  O   UNL     1      38.634  15.577 122.782 -0.35 -0.00    +0.000 OA
DOCKED: ATOM     23  C   UNL     1      37.441  15.966 122.921 -0.32 -0.00    +0.000 C 
DOCKED: ATOM     24  N   UNL     1      36.349  15.063 122.703 -0.36 -0.00    +0.000 N 
DOCKED: ATOM     25  H   UNL     1      35.440  15.440 122.666 -0.02 -0.00    +0.000 HD
DOCKED: BRANCH  22  24
DOCKED: ATOM     26  C   UNL     1      36.492  13.642 122.535 -0.36 -0.00    +0.000 A 
DOCKED: ATOM     27  C   UNL     1      36.222  12.792 123.616 -0.57 -0.00    +0.000 A 
DOCKED: ATOM     28  C   UNL     1      36.373  11.408 123.487 -0.63 -0.00    +0.000 A 
DOCKED: ATOM     29  C   UNL     1      36.807  10.847 122.273 -0.55 -0.00    +0.000 A 
DOCKED: ATOM     30  C   UNL     1      37.111  11.704 121.200 -0.47 -0.00    +0.000 A 
DOCKED: ATOM     31  C   UNL     1      36.959  13.088 121.331 -0.38 -0.00    +0.000 A 
DOCKED: ATOM     32  CM  UNL     1      36.661  12.246 122.408 +0.00 -0.00    +0.000 AC
DOCKED: BRANCH  27  30
DOCKED: ATOM     33  C   UNL     1      36.967   9.377 122.152 -0.65 -0.00    +0.000 C 
DOCKED: ATOM     34  N   UNL     1      37.026   8.534 123.309 -0.69 -0.00    +0.000 N 
DOCKED: ATOM     35  O   UNL     1      37.069   8.856 121.008 -2.70 -0.00    +0.000 OA
DOCKED: ATOM     36  H   UNL     1      37.034   8.935 124.208 -0.54 -0.00    +0.000 HD
DOCKED: BRANCH  31  34
DOCKED: ATOM     37  O   UNL     1      37.070   7.187 123.171 -1.99 -0.00    +0.000 OA
DOCKED: ATOM     38  H   UNL     1      37.614   6.958 122.401 -0.34 -0.00    +0.000 HD
DOCKED: ENDBRANCH  31  34
DOCKED: ENDBRANCH  27  30
DOCKED: ENDBRANCH  22  24
DOCKED: ENDBRANCH  19  21
DOCKED: ENDBRANCH   1  19
DOCKED: TORSDOF 10DOCKED: TER
DOCKED: ENDMDL
________________________________________________________________________________


	BEGINNING GENETIC ALGORITHM DOCKING 10 of 100
Run: 10 Seed: 1825602286 224758298 [ Run 10 of 100 GA/GALS ]
Beginning LAMARCKIAN GENETIC ALGORITHM (LGA), with a maximum of 2500000 energy evaluations.

Final-Value: -18.287


	FINAL GENETIC ALGORITHM DOCKED STATE
	_______________________________________________


Detailed state:  trans 37.462 17.055 123.217 quatxyzw -0.943841 0.017053 0.300359 -0.136590 center 1.858 0.218 -0.021 ntor 10 -163.9257 106.1590 31.7022 -180.0000 -179.6847 179.0083 -143.8451 -160.5903 -101.2161 179.7896
State:	 37.462  17.055 123.217  -0.953  0.017  0.303 -164.299   -163.93  106.16   31.70 -180.00 -179.68  179.01 -143.85 -160.59 -101.22  179.79

DOCKED: MODEL       10
DOCKED: USER    Run = 10
DOCKED: USER    DPF = ligand_dock.biased.dpf
DOCKED: USER  
DOCKED: USER    Estimated Free Energy of Binding    =  -13.08 kcal/mol  [=(1)+(2)+(3)-(4)]
DOCKED: USER    Estimated Inhibition Constant, Ki   =  259.45 pM (picomolar)  [Temperature = 298.15 K]
DOCKED: USER    
DOCKED: USER    (1) Final Intermolecular Energy     =  -16.06 kcal/mol
DOCKED: USER        vdW + Hbond + desolv Energy     =  -16.06 kcal/mol
DOCKED: USER        Electrostatic Energy            =   +0.00 kcal/mol
DOCKED: USER    (2) Final Total Internal Energy     =   -2.23 kcal/mol
DOCKED: USER    (3) Torsional Free Energy           =   +2.98 kcal/mol
DOCKED: USER    (4) Unbound System's Energy  [=(2)] =   -2.23 kcal/mol
DOCKED: USER    
DOCKED: USER    
DOCKED: USER    NEWDPF move ligand.dum.pdbqt
DOCKED: USER    NEWDPF about 1.858000 0.218000 -0.021000
DOCKED: USER    NEWDPF tran0 37.461946 17.055089 123.217199
DOCKED: USER    NEWDPF quaternion0 -0.943841 0.017053 0.300359 -0.136590
DOCKED: USER    NEWDPF axisangle0 -0.952771 0.017214 0.303201 -164.298809
DOCKED: USER    NEWDPF quat0 -0.952771 0.017214 0.303201 -164.298809
DOCKED: USER    NEWDPF dihe0 -163.93 106.16 31.70 -180.00 -179.68 179.01 -143.85 -160.59 -101.22 179.79 
DOCKED: USER  keepresnum = 1 
DOCKED: USER  
DOCKED: REMARK  Name = 
DOCKED: REMARK  12 active torsions:
DOCKED: REMARK  status: ('A' for Active; 'I' for Inactive)
DOCKED: REMARK    1  A    between atoms: C_2  and  O_3
DOCKED: REMARK    2  A    between atoms: O_3  and  C_4
DOCKED: REMARK    3  A    between atoms: C_4  and  C_5
DOCKED: REMARK    4  A    between atoms: C_10  and  C_11
DOCKED: REMARK    5  A    between atoms: C_11  and  N_12
DOCKED: REMARK    6  A    between atoms: N_12  and  C_13
DOCKED: REMARK    7  A    between atoms: N_12  and  C_15
DOCKED: REMARK    8  A    between atoms: C_13  and  C_14
DOCKED: REMARK    9  A    between atoms: C_15  and  C_16
DOCKED: REMARK   10  A    between atoms: N_21  and  C_22
DOCKED: REMARK   11  A    between atoms: C_25  and  C_26
DOCKED: REMARK   12  A    between atoms: N_27  and  O_28
DOCKED: REMARK                            x       y       z     vdW  Elec       q    Type
DOCKED: REMARK                         _______ _______ _______ _____ _____    ______ ____
DOCKED: USER                              x       y       z     vdW  Elec       q    Type
DOCKED: USER                           _______ _______ _______ _____ _____    ______ ____
DOCKED: ROOT
DOCKED: ATOM      1  C   UNL     1      36.565  18.082 122.296 -0.19 -0.00    +0.000 C 
DOCKED: ENDROOT
DOCKED: BRANCH   1   2
DOCKED: ATOM      2  C   UNL     1      35.722  17.975 123.533 -0.25 -0.00    +0.000 A 
DOCKED: ATOM      3  C   UNL     1      34.887  16.864 123.725 -0.39 -0.00    +0.000 A 
DOCKED: ATOM      4  C   UNL     1      34.073  16.776 124.857 -0.41 -0.00    +0.000 A 
DOCKED: ATOM      5  C   UNL     1      34.073  17.807 125.807 -0.34 -0.00    +0.000 A 
DOCKED: ATOM      6  C   UNL     1      33.257  17.727 126.947 -0.31 -0.00    +0.000 A 
DOCKED: ATOM      7  C   UNL     1      33.257  18.765 127.893 -0.17 -0.00    +0.000 A 
DOCKED: ATOM      8  C   UNL     1      34.082  19.883 127.695 -0.10 -0.00    +0.000 A 
DOCKED: ATOM      9  C   UNL     1      34.895  19.971 126.562 -0.14 -0.00    +0.000 A 
DOCKED: ATOM     10  C   UNL     1      34.899  18.939 125.614 -0.23 -0.00    +0.000 A 
DOCKED: ATOM     11  C   UNL     1      35.714  19.018 124.474 -0.20 -0.00    +0.000 A 
DOCKED: ATOM     12  CM  UNL     1      34.895  17.897 124.668 -0.43 -0.00    +0.000 AC
DOCKED: ATOM     13  CM  UNL     1      34.077  18.849 126.753 -0.02 -0.00    +0.000 AC
DOCKED: BRANCH   7  12
DOCKED: ATOM     14  C   UNL     1      32.399  18.679 129.128 -0.17 -0.00    +0.000 C 
DOCKED: BRANCH  12  13
DOCKED: ATOM     15  N   UNL     1      30.971  18.800 128.765 -0.25 -0.00    +0.000 N 
DOCKED: ATOM     16  H   UNL     1      30.497  19.307 129.511 +0.01 -0.00    +0.000 HD
DOCKED: BRANCH  13  15
DOCKED: ATOM     17  C   UNL     1      30.314  17.473 128.702 -0.49 -0.00    +0.000 C 
DOCKED: ATOM     18  C   UNL     1      31.270  16.344 129.083 -0.32 -0.00    +0.000 C 
DOCKED: ENDBRANCH  13  15
DOCKED: BRANCH  13  17
DOCKED: ATOM     19  C   UNL     1      30.773  19.633 127.552 -0.33 -0.00    +0.000 C 
DOCKED: ATOM     20  C   UNL     1      29.329  19.654 127.030 -0.51 -0.00    +0.000 C 
DOCKED: ENDBRANCH  13  17
DOCKED: ENDBRANCH  12  13
DOCKED: ENDBRANCH   7  12
DOCKED: ENDBRANCH   1   2
DOCKED: BRANCH   1  19
DOCKED: ATOM     21  O   UNL     1      37.830  17.475 122.538 -0.16 -0.00    +0.000 OA
DOCKED: BRANCH  19  21
DOCKED: ATOM     22  O   UNL     1      39.038  15.578 123.053 -0.36 -0.00    +0.000 OA
DOCKED: ATOM     23  C   UNL     1      38.021  16.091 122.510 -0.28 -0.00    +0.000 C 
DOCKED: ATOM     24  N   UNL     1      37.070  15.270 121.820 -0.27 -0.00    +0.000 N 
DOCKED: ATOM     25  H   UNL     1      36.381  15.720 121.279 -0.01 -0.00    +0.000 HD
DOCKED: BRANCH  22  24
DOCKED: ATOM     26  C   UNL     1      37.053  13.833 121.866 -0.37 -0.00    +0.000 A 
DOCKED: ATOM     27  C   UNL     1      36.713  13.188 123.062 -0.53 -0.00    +0.000 A 
DOCKED: ATOM     28  C   UNL     1      36.710  11.792 123.140 -0.61 -0.00    +0.000 A 
DOCKED: ATOM     29  C   UNL     1      37.057  11.013 122.023 -0.47 -0.00    +0.000 A 
DOCKED: ATOM     30  C   UNL     1      37.433  11.663 120.833 -0.43 -0.00    +0.000 A 
DOCKED: ATOM     31  C   UNL     1      37.434  13.059 120.756 -0.43 -0.00    +0.000 A 
DOCKED: ATOM     32  CM  UNL     1      37.067  12.424 121.947 +0.00 -0.00    +0.000 AC
DOCKED: BRANCH  27  30
DOCKED: ATOM     33  C   UNL     1      37.054   9.533 122.121 -0.62 -0.00    +0.000 C 
DOCKED: ATOM     34  N   UNL     1      37.174   8.868 123.384 -0.59 -0.00    +0.000 N 
DOCKED: ATOM     35  O   UNL     1      36.958   8.841 121.071 -2.67 -0.00    +0.000 OA
DOCKED: ATOM     36  H   UNL     1      37.335   9.393 124.202 -0.62 -0.00    +0.000 HD
DOCKED: BRANCH  31  34
DOCKED: ATOM     37  O   UNL     1      37.067   7.519 123.460 -2.19 -0.00    +0.000 OA
DOCKED: ATOM     38  H   UNL     1      37.403   7.122 122.642 -0.22 -0.00    +0.000 HD
DOCKED: ENDBRANCH  31  34
DOCKED: ENDBRANCH  27  30
DOCKED: ENDBRANCH  22  24
DOCKED: ENDBRANCH  19  21
DOCKED: ENDBRANCH   1  19
DOCKED: TORSDOF 10DOCKED: TER
DOCKED: ENDMDL
________________________________________________________________________________


	BEGINNING GENETIC ALGORITHM DOCKING 11 of 100
Run: 11 Seed: 260443020 1080171674 [ Run 11 of 100 GA/GALS ]
Beginning LAMARCKIAN GENETIC ALGORITHM (LGA), with a maximum of 2500000 energy evaluations.

Final-Value: -16.878


	FINAL GENETIC ALGORITHM DOCKED STATE
	_______________________________________________


Detailed state:  trans 35.752 17.215 124.687 quatxyzw -0.139625 0.865486 0.445296 0.182071 center 1.858 0.218 -0.021 ntor 10 -55.9909 26.5212 2.6643 -172.8463 159.4959 -18.6063 148.4527 -166.5782 110.3344 -155.7269
State:	 35.752  17.215 124.687  -0.142  0.880  0.453 159.019    -55.99   26.52    2.66 -172.85  159.50  -18.61  148.45 -166.58  110.33 -155.73

DOCKED: MODEL       11
DOCKED: USER    Run = 11
DOCKED: USER    DPF = ligand_dock.biased.dpf
DOCKED: USER  
DOCKED: USER    Estimated Free Energy of Binding    =  -11.83 kcal/mol  [=(1)+(2)+(3)-(4)]
DOCKED: USER    Estimated Inhibition Constant, Ki   =    2.14 nM (nanomolar)  [Temperature = 298.15 K]
DOCKED: USER    
DOCKED: USER    (1) Final Intermolecular Energy     =  -14.81 kcal/mol
DOCKED: USER        vdW + Hbond + desolv Energy     =  -14.81 kcal/mol
DOCKED: USER        Electrostatic Energy            =   +0.00 kcal/mol
DOCKED: USER    (2) Final Total Internal Energy     =   -2.07 kcal/mol
DOCKED: USER    (3) Torsional Free Energy           =   +2.98 kcal/mol
DOCKED: USER    (4) Unbound System's Energy  [=(2)] =   -2.07 kcal/mol
DOCKED: USER    
DOCKED: USER    
DOCKED: USER    NEWDPF move ligand.dum.pdbqt
DOCKED: USER    NEWDPF about 1.858000 0.218000 -0.021000
DOCKED: USER    NEWDPF tran0 35.752113 17.215121 124.686869
DOCKED: USER    NEWDPF quaternion0 -0.139625 0.865486 0.445296 0.182071
DOCKED: USER    NEWDPF axisangle0 -0.141998 0.880198 0.452866 159.019205
DOCKED: USER    NEWDPF quat0 -0.141998 0.880198 0.452866 159.019205
DOCKED: USER    NEWDPF dihe0 -55.99 26.52 2.66 -172.85 159.50 -18.61 148.45 -166.58 110.33 -155.73 
DOCKED: USER  keepresnum = 1 
DOCKED: USER  
DOCKED: REMARK  Name = 
DOCKED: REMARK  12 active torsions:
DOCKED: REMARK  status: ('A' for Active; 'I' for Inactive)
DOCKED: REMARK    1  A    between atoms: C_2  and  O_3
DOCKED: REMARK    2  A    between atoms: O_3  and  C_4
DOCKED: REMARK    3  A    between atoms: C_4  and  C_5
DOCKED: REMARK    4  A    between atoms: C_10  and  C_11
DOCKED: REMARK    5  A    between atoms: C_11  and  N_12
DOCKED: REMARK    6  A    between atoms: N_12  and  C_13
DOCKED: REMARK    7  A    between atoms: N_12  and  C_15
DOCKED: REMARK    8  A    between atoms: C_13  and  C_14
DOCKED: REMARK    9  A    between atoms: C_15  and  C_16
DOCKED: REMARK   10  A    between atoms: N_21  and  C_22
DOCKED: REMARK   11  A    between atoms: C_25  and  C_26
DOCKED: REMARK   12  A    between atoms: N_27  and  O_28
DOCKED: REMARK                            x       y       z     vdW  Elec       q    Type
DOCKED: REMARK                         _______ _______ _______ _____ _____    ______ ____
DOCKED: USER                              x       y       z     vdW  Elec       q    Type
DOCKED: USER                           _______ _______ _______ _____ _____    ______ ____
DOCKED: ROOT
DOCKED: ATOM      1  C   UNL     1      35.286  17.987 123.311 -0.32 -0.00    +0.000 C 
DOCKED: ENDROOT
DOCKED: BRANCH   1   2
DOCKED: ATOM      2  C   UNL     1      36.779  18.117 123.235 -0.17 -0.00    +0.000 A 
DOCKED: ATOM      3  C   UNL     1      37.491  18.702 124.293 -0.15 -0.00    +0.000 A 
DOCKED: ATOM      4  C   UNL     1      38.877  18.859 124.214 -0.13 -0.00    +0.000 A 
DOCKED: ATOM      5  C   UNL     1      39.569  18.445 123.067 -0.12 -0.00    +0.000 A 
DOCKED: ATOM      6  C   UNL     1      40.961  18.599 122.978 -0.13 -0.00    +0.000 A 
DOCKED: ATOM      7  C   UNL     1      41.648  18.187 121.825 -0.10 -0.00    +0.000 A 
DOCKED: ATOM      8  C   UNL     1      40.934  17.615 120.761 -0.08 -0.00    +0.000 A 
DOCKED: ATOM      9  C   UNL     1      39.549  17.459 120.841 -0.07 -0.00    +0.000 A 
DOCKED: ATOM     10  C   UNL     1      38.856  17.869 121.989 -0.09 -0.00    +0.000 A 
DOCKED: ATOM     11  C   UNL     1      37.465  17.715 122.078 -0.12 -0.00    +0.000 A 
DOCKED: ATOM     12  CM  UNL     1      38.172  18.284 123.146 +0.00 -0.00    +0.000 AC
DOCKED: ATOM     13  CM  UNL     1      40.253  18.029 121.910 +0.00 -0.00    +0.000 AC
DOCKED: BRANCH   7  12
DOCKED: ATOM     14  C   UNL     1      43.145  18.332 121.729 -0.15 -0.00    +0.000 C 
DOCKED: BRANCH  12  13
DOCKED: ATOM     15  N   UNL     1      43.806  17.090 122.183 -0.29 -0.00    +0.000 N 
DOCKED: ATOM     16  H   UNL     1      44.605  17.349 122.760 -0.05 -0.00    +0.000 HD
DOCKED: BRANCH  13  15
DOCKED: ATOM     17  C   UNL     1      44.367  16.328 121.042 -0.27 -0.00    +0.000 C 
DOCKED: ATOM     18  C   UNL     1      45.895  16.350 121.039 -0.28 +0.00    +0.000 C 
DOCKED: ENDBRANCH  13  15
DOCKED: BRANCH  13  17
DOCKED: ATOM     19  C   UNL     1      42.934  16.289 123.078 -0.42 -0.00    +0.000 C 
DOCKED: ATOM     20  C   UNL     1      42.107  15.214 122.358 -0.49 -0.00    +0.000 C 
DOCKED: ENDBRANCH  13  17
DOCKED: ENDBRANCH  12  13
DOCKED: ENDBRANCH   7  12
DOCKED: ENDBRANCH   1   2
DOCKED: BRANCH   1  19
DOCKED: ATOM     21  O   UNL     1      34.946  17.086 124.359 -0.41 -0.00    +0.000 OA
DOCKED: BRANCH  19  21
DOCKED: ATOM     22  O   UNL     1      34.680  14.926 125.125 -0.46 -0.00    +0.000 OA
DOCKED: ATOM     23  C   UNL     1      35.199  15.714 124.287 -0.52 -0.00    +0.000 C 
DOCKED: ATOM     24  N   UNL     1      36.089  15.221 123.276 -0.42 -0.00    +0.000 N 
DOCKED: ATOM     25  H   UNL     1      36.593  15.881 122.747 -0.00 -0.00    +0.000 HD
DOCKED: BRANCH  22  24
DOCKED: ATOM     26  C   UNL     1      36.294  13.829 122.984 -0.44 -0.00    +0.000 A 
DOCKED: ATOM     27  C   UNL     1      35.579  12.862 123.705 -0.33 -0.00    +0.000 A 
DOCKED: ATOM     28  C   UNL     1      35.776  11.501 123.456 -0.57 -0.00    +0.000 A 
DOCKED: ATOM     29  C   UNL     1      36.699  11.078 122.485 -0.58 -0.00    +0.000 A 
DOCKED: ATOM     30  C   UNL     1      37.442  12.047 121.787 -0.40 -0.00    +0.000 A 
DOCKED: ATOM     31  C   UNL     1      37.244  13.409 122.037 -0.43 -0.00    +0.000 A 
DOCKED: ATOM     32  CM  UNL     1      36.506  12.454 122.743 +0.00 -0.00    +0.000 AC
DOCKED: BRANCH  27  30
DOCKED: ATOM     33  C   UNL     1      36.901   9.630 122.234 -0.65 -0.00    +0.000 C 
DOCKED: ATOM     34  N   UNL     1      36.997   8.691 123.313 -0.66 -0.00    +0.000 N 
DOCKED: ATOM     35  O   UNL     1      37.004   9.213 121.049 -2.72 -0.00    +0.000 OA
DOCKED: ATOM     36  H   UNL     1      37.004   9.013 124.243 -0.53 -0.00    +0.000 HD
DOCKED: BRANCH  31  34
DOCKED: ATOM     37  O   UNL     1      37.079   7.363 123.058 -2.15 -0.00    +0.000 OA
DOCKED: ATOM     38  H   UNL     1      37.102   7.219 122.099 -0.10 -0.00    +0.000 HD
DOCKED: ENDBRANCH  31  34
DOCKED: ENDBRANCH  27  30
DOCKED: ENDBRANCH  22  24
DOCKED: ENDBRANCH  19  21
DOCKED: ENDBRANCH   1  19
DOCKED: TORSDOF 10DOCKED: TER
DOCKED: ENDMDL
________________________________________________________________________________


	BEGINNING GENETIC ALGORITHM DOCKING 12 of 100
Run: 12 Seed: 1978295416 678747483 [ Run 12 of 100 GA/GALS ]
Beginning LAMARCKIAN GENETIC ALGORITHM (LGA), with a maximum of 2500000 energy evaluations.

Final-Value: -16.229


	FINAL GENETIC ALGORITHM DOCKED STATE
	_______________________________________________


Detailed state:  trans 39.648 17.013 123.214 quatxyzw -0.022968 -0.809368 -0.533677 -0.244098 center 1.858 0.218 -0.021 ntor 10 -153.1984 39.8879 7.1228 -71.8190 -167.9453 66.4431 -141.5758 94.7727 116.8977 171.6586
State:	 39.648  17.013 123.214  -0.024 -0.835 -0.550 -151.743   -153.20   39.89    7.12  -71.82 -167.95   66.44 -141.58   94.77  116.90  171.66

DOCKED: MODEL       12
DOCKED: USER    Run = 12
DOCKED: USER    DPF = ligand_dock.biased.dpf
DOCKED: USER  
DOCKED: USER    Estimated Free Energy of Binding    =  -11.12 kcal/mol  [=(1)+(2)+(3)-(4)]
DOCKED: USER    Estimated Inhibition Constant, Ki   =    7.06 nM (nanomolar)  [Temperature = 298.15 K]
DOCKED: USER    
DOCKED: USER    (1) Final Intermolecular Energy     =  -14.10 kcal/mol
DOCKED: USER        vdW + Hbond + desolv Energy     =  -14.10 kcal/mol
DOCKED: USER        Electrostatic Energy            =   +0.00 kcal/mol
DOCKED: USER    (2) Final Total Internal Energy     =   -2.13 kcal/mol
DOCKED: USER    (3) Torsional Free Energy           =   +2.98 kcal/mol
DOCKED: USER    (4) Unbound System's Energy  [=(2)] =   -2.13 kcal/mol
DOCKED: USER    
DOCKED: USER    
DOCKED: USER    NEWDPF move ligand.dum.pdbqt
DOCKED: USER    NEWDPF about 1.858000 0.218000 -0.021000
DOCKED: USER    NEWDPF tran0 39.647736 17.013248 123.214114
DOCKED: USER    NEWDPF quaternion0 -0.022968 -0.809368 -0.533677 -0.244098
DOCKED: USER    NEWDPF axisangle0 -0.023684 -0.834615 -0.550324 -151.742927
DOCKED: USER    NEWDPF quat0 -0.023684 -0.834615 -0.550324 -151.742927
DOCKED: USER    NEWDPF dihe0 -153.20 39.89 7.12 -71.82 -167.95 66.44 -141.58 94.77 116.90 171.66 
DOCKED: USER  keepresnum = 1 
DOCKED: USER  
DOCKED: REMARK  Name = 
DOCKED: REMARK  12 active torsions:
DOCKED: REMARK  status: ('A' for Active; 'I' for Inactive)
DOCKED: REMARK    1  A    between atoms: C_2  and  O_3
DOCKED: REMARK    2  A    between atoms: O_3  and  C_4
DOCKED: REMARK    3  A    between atoms: C_4  and  C_5
DOCKED: REMARK    4  A    between atoms: C_10  and  C_11
DOCKED: REMARK    5  A    between atoms: C_11  and  N_12
DOCKED: REMARK    6  A    between atoms: N_12  and  C_13
DOCKED: REMARK    7  A    between atoms: N_12  and  C_15
DOCKED: REMARK    8  A    between atoms: C_13  and  C_14
DOCKED: REMARK    9  A    between atoms: C_15  and  C_16
DOCKED: REMARK   10  A    between atoms: N_21  and  C_22
DOCKED: REMARK   11  A    between atoms: C_25  and  C_26
DOCKED: REMARK   12  A    between atoms: N_27  and  O_28
DOCKED: REMARK                            x       y       z     vdW  Elec       q    Type
DOCKED: REMARK                         _______ _______ _______ _____ _____    ______ ____
DOCKED: USER                              x       y       z     vdW  Elec       q    Type
DOCKED: USER                           _______ _______ _______ _____ _____    ______ ____
DOCKED: ROOT
DOCKED: ATOM      1  C   UNL     1      39.034  18.078 122.120 -0.11 -0.00    +0.000 C 
DOCKED: ENDROOT
DOCKED: BRANCH   1   2
DOCKED: ATOM      2  C   UNL     1      40.430  17.889 121.603 -0.09 -0.00    +0.000 A 
DOCKED: ATOM      3  C   UNL     1      41.474  18.699 122.074 -0.09 -0.00    +0.000 A 
DOCKED: ATOM      4  C   UNL     1      42.769  18.552 121.571 -0.10 -0.00    +0.000 A 
DOCKED: ATOM      5  C   UNL     1      43.034  17.600 120.576 -0.10 -0.00    +0.000 A 
DOCKED: ATOM      6  C   UNL     1      44.332  17.446 120.063 -0.10 -0.00    +0.000 A 
DOCKED: ATOM      7  C   UNL     1      44.591  16.494 119.064 -0.16 -0.00    +0.000 A 
DOCKED: ATOM      8  C   UNL     1      43.543  15.693 118.581 -0.24 -0.00    +0.000 A 
DOCKED: ATOM      9  C   UNL     1      42.249  15.841 119.086 -0.05 -0.00    +0.000 A 
DOCKED: ATOM     10  C   UNL     1      41.984  16.790 120.083 -0.13 -0.00    +0.000 A 
DOCKED: ATOM     11  C   UNL     1      40.687  16.945 120.596 -0.12 -0.00    +0.000 A 
DOCKED: ATOM     12  CM  UNL     1      41.729  17.746 121.084 +0.00 -0.00    +0.000 AC
DOCKED: ATOM     13  CM  UNL     1      43.289  16.644 119.575 +0.00 -0.00    +0.000 AC
DOCKED: BRANCH   7  12
DOCKED: ATOM     14  C   UNL     1      45.984  16.309 118.521 -0.19 -0.00    +0.000 C 
DOCKED: BRANCH  12  13
DOCKED: ATOM     15  N   UNL     1      46.000  15.217 117.524 -0.26 -0.00    +0.000 N 
DOCKED: ATOM     16  H   UNL     1      45.355  14.493 117.837 -0.57 -0.00    +0.000 HD
DOCKED: BRANCH  13  15
DOCKED: ATOM     17  C   UNL     1      47.330  14.566 117.457 -0.30 -0.00    +0.000 C 
DOCKED: ATOM     18  C   UNL     1      48.221  14.966 118.632 -0.32 +0.00    +0.000 C 
DOCKED: ENDBRANCH  13  15
DOCKED: BRANCH  13  17
DOCKED: ATOM     19  C   UNL     1      45.471  15.655 116.208 -0.25 -0.00    +0.000 C 
DOCKED: ATOM     20  C   UNL     1      46.545  15.835 115.125 -0.25 -0.00    +0.000 C 
DOCKED: ENDBRANCH  13  17
DOCKED: ENDBRANCH  12  13
DOCKED: ENDBRANCH   7  12
DOCKED: ENDBRANCH   1   2
DOCKED: BRANCH   1  19
DOCKED: ATOM     21  O   UNL     1      38.777  17.118 123.139 -0.24 -0.00    +0.000 OA
DOCKED: BRANCH  19  21
DOCKED: ATOM     22  O   UNL     1      39.819  15.059 123.077 -0.47 -0.00    +0.000 OA
DOCKED: ATOM     23  C   UNL     1      38.772  15.742 122.895 -0.30 -0.00    +0.000 C 
DOCKED: ATOM     24  N   UNL     1      37.578  15.127 122.396 -0.32 -0.00    +0.000 N 
DOCKED: ATOM     25  H   UNL     1      36.838  15.716 122.120 -0.00 -0.00    +0.000 HD
DOCKED: BRANCH  22  24
DOCKED: ATOM     26  C   UNL     1      37.386  13.708 122.271 -0.44 -0.00    +0.000 A 
DOCKED: ATOM     27  C   UNL     1      37.233  12.931 123.428 -0.53 -0.00    +0.000 A 
DOCKED: ATOM     28  C   UNL     1      37.066  11.546 123.337 -0.59 -0.00    +0.000 A 
DOCKED: ATOM     29  C   UNL     1      37.059  10.908 122.085 -0.47 -0.00    +0.000 A 
DOCKED: ATOM     30  C   UNL     1      37.248  11.684 120.927 -0.43 -0.00    +0.000 A 
DOCKED: ATOM     31  C   UNL     1      37.414  13.069 121.019 -0.43 -0.00    +0.000 A 
DOCKED: ATOM     32  CM  UNL     1      37.234  12.307 122.178 +0.00 -0.00    +0.000 AC
DOCKED: BRANCH  27  30
DOCKED: ATOM     33  C   UNL     1      36.886   9.437 122.003 -0.66 -0.00    +0.000 C 
DOCKED: ATOM     34  N   UNL     1      36.948   8.611 123.172 -0.69 -0.00    +0.000 N 
DOCKED: ATOM     35  O   UNL     1      36.693   8.895 120.881 -2.61 +0.00    +0.000 OA
DOCKED: ATOM     36  H   UNL     1      37.182   9.010 124.042 -0.51 -0.00    +0.000 HD
DOCKED: BRANCH  31  34
DOCKED: ATOM     37  O   UNL     1      36.687   7.285 123.087 -1.96 -0.00    +0.000 OA
DOCKED: ATOM     38  H   UNL     1      36.586   7.034 122.156 -0.06 -0.00    +0.000 HD
DOCKED: ENDBRANCH  31  34
DOCKED: ENDBRANCH  27  30
DOCKED: ENDBRANCH  22  24
DOCKED: ENDBRANCH  19  21
DOCKED: ENDBRANCH   1  19
DOCKED: TORSDOF 10DOCKED: TER
DOCKED: ENDMDL
________________________________________________________________________________


	BEGINNING GENETIC ALGORITHM DOCKING 13 of 100
Run: 13 Seed: 1813700909 913797276 [ Run 13 of 100 GA/GALS ]
Beginning LAMARCKIAN GENETIC ALGORITHM (LGA), with a maximum of 2500000 energy evaluations.

Final-Value: -18.174


	FINAL GENETIC ALGORITHM DOCKED STATE
	_______________________________________________


Detailed state:  trans 36.517 16.888 121.902 quatxyzw 0.835962 -0.091480 -0.423292 0.337078 center 1.858 0.218 -0.021 ntor 10 -177.7836 143.1539 10.2533 -74.3657 -7.1668 166.0153 -180.0000 93.1150 -121.6789 -166.9001
State:	 36.517  16.888 121.902   0.888 -0.097 -0.450 140.602   -177.78  143.15   10.25  -74.37   -7.17  166.02 -180.00   93.12 -121.68 -166.90

DOCKED: MODEL       13
DOCKED: USER    Run = 13
DOCKED: USER    DPF = ligand_dock.biased.dpf
DOCKED: USER  
DOCKED: USER    Estimated Free Energy of Binding    =  -12.88 kcal/mol  [=(1)+(2)+(3)-(4)]
DOCKED: USER    Estimated Inhibition Constant, Ki   =  360.85 pM (picomolar)  [Temperature = 298.15 K]
DOCKED: USER    
DOCKED: USER    (1) Final Intermolecular Energy     =  -15.87 kcal/mol
DOCKED: USER        vdW + Hbond + desolv Energy     =  -15.87 kcal/mol
DOCKED: USER        Electrostatic Energy            =   +0.00 kcal/mol
DOCKED: USER    (2) Final Total Internal Energy     =   -2.31 kcal/mol
DOCKED: USER    (3) Torsional Free Energy           =   +2.98 kcal/mol
DOCKED: USER    (4) Unbound System's Energy  [=(2)] =   -2.31 kcal/mol
DOCKED: USER    
DOCKED: USER    
DOCKED: USER    NEWDPF move ligand.dum.pdbqt
DOCKED: USER    NEWDPF about 1.858000 0.218000 -0.021000
DOCKED: USER    NEWDPF tran0 36.517443 16.888010 121.902245
DOCKED: USER    NEWDPF quaternion0 0.835962 -0.091480 -0.423292 0.337078
DOCKED: USER    NEWDPF axisangle0 0.887927 -0.097166 -0.449605 140.602069
DOCKED: USER    NEWDPF quat0 0.887927 -0.097166 -0.449605 140.602069
DOCKED: USER    NEWDPF dihe0 -177.78 143.15 10.25 -74.37 -7.17 166.02 -180.00 93.12 -121.68 -166.90 
DOCKED: USER  keepresnum = 1 
DOCKED: USER  
DOCKED: REMARK  Name = 
DOCKED: REMARK  12 active torsions:
DOCKED: REMARK  status: ('A' for Active; 'I' for Inactive)
DOCKED: REMARK    1  A    between atoms: C_2  and  O_3
DOCKED: REMARK    2  A    between atoms: O_3  and  C_4
DOCKED: REMARK    3  A    between atoms: C_4  and  C_5
DOCKED: REMARK    4  A    between atoms: C_10  and  C_11
DOCKED: REMARK    5  A    between atoms: C_11  and  N_12
DOCKED: REMARK    6  A    between atoms: N_12  and  C_13
DOCKED: REMARK    7  A    between atoms: N_12  and  C_15
DOCKED: REMARK    8  A    between atoms: C_13  and  C_14
DOCKED: REMARK    9  A    between atoms: C_15  and  C_16
DOCKED: REMARK   10  A    between atoms: N_21  and  C_22
DOCKED: REMARK   11  A    between atoms: C_25  and  C_26
DOCKED: REMARK   12  A    between atoms: N_27  and  O_28
DOCKED: REMARK                            x       y       z     vdW  Elec       q    Type
DOCKED: REMARK                         _______ _______ _______ _____ _____    ______ ____
DOCKED: USER                              x       y       z     vdW  Elec       q    Type
DOCKED: USER                           _______ _______ _______ _____ _____    ______ ____
DOCKED: ROOT
DOCKED: ATOM      1  C   UNL     1      35.739  18.326 121.721 -0.25 -0.00    +0.000 C 
DOCKED: ENDROOT
DOCKED: BRANCH   1   2
DOCKED: ATOM      2  C   UNL     1      35.246  17.887 123.069 -0.29 -0.00    +0.000 A 
DOCKED: ATOM      3  C   UNL     1      34.422  16.757 123.186 -0.40 -0.00    +0.000 A 
DOCKED: ATOM      4  C   UNL     1      33.931  16.364 124.433 -0.26 -0.00    +0.000 A 
DOCKED: ATOM      5  C   UNL     1      34.247  17.105 125.581 -0.38 -0.00    +0.000 A 
DOCKED: ATOM      6  C   UNL     1      33.757  16.718 126.838 -0.34 -0.00    +0.000 A 
DOCKED: ATOM      7  C   UNL     1      34.073  17.466 127.984 -0.23 -0.00    +0.000 A 
DOCKED: ATOM      8  C   UNL     1      34.886  18.604 127.865 -0.14 -0.00    +0.000 A 
DOCKED: ATOM      9  C   UNL     1      35.377  18.997 126.617 -0.16 -0.00    +0.000 A 
DOCKED: ATOM     10  C   UNL     1      35.064  18.255 125.470 -0.26 -0.00    +0.000 A 
DOCKED: ATOM     11  C   UNL     1      35.553  18.641 124.213 -0.23 -0.00    +0.000 A 
DOCKED: ATOM     12  CM  UNL     1      34.744  17.502 124.325 -0.32 -0.00    +0.000 AC
DOCKED: ATOM     13  CM  UNL     1      34.567  17.858 126.726 -0.07 -0.00    +0.000 AC
DOCKED: BRANCH   7  12
DOCKED: ATOM     14  C   UNL     1      33.567  17.047 129.339 -0.29 -0.00    +0.000 C 
DOCKED: BRANCH  12  13
DOCKED: ATOM     15  N   UNL     1      32.184  17.529 129.537 -0.26 -0.00    +0.000 N 
DOCKED: ATOM     16  H   UNL     1      32.114  18.465 129.138 +0.01 -0.00    +0.000 HD
DOCKED: BRANCH  13  15
DOCKED: ATOM     17  C   UNL     1      31.864  17.683 130.976 -0.20 -0.00    +0.000 C 
DOCKED: ATOM     18  C   UNL     1      32.927  17.043 131.868 -0.23 -0.00    +0.000 C 
DOCKED: ENDBRANCH  13  15
DOCKED: BRANCH  13  17
DOCKED: ATOM     19  C   UNL     1      31.197  16.719 128.779 -0.49 -0.00    +0.000 C 
DOCKED: ATOM     20  C   UNL     1      29.950  17.497 128.335 -0.48 -0.00    +0.000 C 
DOCKED: ENDBRANCH  13  17
DOCKED: ENDBRANCH  12  13
DOCKED: ENDBRANCH   7  12
DOCKED: ENDBRANCH   1   2
DOCKED: BRANCH   1  19
DOCKED: ATOM     21  O   UNL     1      36.801  17.472 121.309 -0.16 -0.00    +0.000 OA
DOCKED: BRANCH  19  21
DOCKED: ATOM     22  O   UNL     1      36.321  15.589 120.066 -0.20 -0.00    +0.000 OA
DOCKED: ATOM     23  C   UNL     1      36.650  16.090 121.177 -0.21 -0.00    +0.000 C 
DOCKED: ATOM     24  N   UNL     1      36.832  15.255 122.328 -0.30 -0.00    +0.000 N 
DOCKED: ATOM     25  H   UNL     1      36.932  15.695 123.204 -0.01 -0.00    +0.000 HD
DOCKED: BRANCH  22  24
DOCKED: ATOM     26  C   UNL     1      36.879  13.819 122.290 -0.40 -0.00    +0.000 A 
DOCKED: ATOM     27  C   UNL     1      37.416  13.178 121.165 -0.42 -0.00    +0.000 A 
DOCKED: ATOM     28  C   UNL     1      37.453  11.783 121.093 -0.41 -0.00    +0.000 A 
DOCKED: ATOM     29  C   UNL     1      36.947  10.999 122.144 -0.51 -0.00    +0.000 A 
DOCKED: ATOM     30  C   UNL     1      36.377  11.643 123.257 -0.63 -0.00    +0.000 A 
DOCKED: ATOM     31  C   UNL     1      36.340  13.039 123.328 -0.56 -0.00    +0.000 A 
DOCKED: ATOM     32  CM  UNL     1      36.902  12.410 122.213 +0.00 -0.00    +0.000 AC
DOCKED: BRANCH  27  30
DOCKED: ATOM     33  C   UNL     1      36.990   9.519 122.052 -0.63 -0.00    +0.000 C 
DOCKED: ATOM     34  N   UNL     1      37.101   8.700 123.223 -0.67 -0.00    +0.000 N 
DOCKED: ATOM     35  O   UNL     1      36.943   8.965 120.920 -2.68 -0.00    +0.000 OA
DOCKED: ATOM     36  H   UNL     1      37.224   9.120 124.105 -0.55 -0.00    +0.000 HD
DOCKED: BRANCH  31  34
DOCKED: ATOM     37  O   UNL     1      37.036   7.351 123.122 -2.15 -0.00    +0.000 OA
DOCKED: ATOM     38  H   UNL     1      37.076   7.094 122.187 -0.11 -0.00    +0.000 HD
DOCKED: ENDBRANCH  31  34
DOCKED: ENDBRANCH  27  30
DOCKED: ENDBRANCH  22  24
DOCKED: ENDBRANCH  19  21
DOCKED: ENDBRANCH   1  19
DOCKED: TORSDOF 10DOCKED: TER
DOCKED: ENDMDL
________________________________________________________________________________


	BEGINNING GENETIC ALGORITHM DOCKING 14 of 100
Run: 14 Seed: 893603721 1640667932 [ Run 14 of 100 GA/GALS ]
Beginning LAMARCKIAN GENETIC ALGORITHM (LGA), with a maximum of 2500000 energy evaluations.

Final-Value: -17.495


	FINAL GENETIC ALGORITHM DOCKED STATE
	_______________________________________________


Detailed state:  trans 36.567 17.170 122.538 quatxyzw 0.276296 0.759536 0.412226 0.420518 center 1.858 0.218 -0.021 ntor 10 -155.5040 -167.5926 3.3086 177.6029 -12.2919 164.5763 -84.2614 -95.4332 127.1356 168.2782
State:	 36.567  17.170 122.538   0.305  0.837  0.454 130.265   -155.50 -167.59    3.31  177.60  -12.29  164.58  -84.26  -95.43  127.14  168.28

DOCKED: MODEL       14
DOCKED: USER    Run = 14
DOCKED: USER    DPF = ligand_dock.biased.dpf
DOCKED: USER  
DOCKED: USER    Estimated Free Energy of Binding    =  -11.65 kcal/mol  [=(1)+(2)+(3)-(4)]
DOCKED: USER    Estimated Inhibition Constant, Ki   =    2.89 nM (nanomolar)  [Temperature = 298.15 K]
DOCKED: USER    
DOCKED: USER    (1) Final Intermolecular Energy     =  -14.63 kcal/mol
DOCKED: USER        vdW + Hbond + desolv Energy     =  -14.63 kcal/mol
DOCKED: USER        Electrostatic Energy            =   +0.00 kcal/mol
DOCKED: USER    (2) Final Total Internal Energy     =   -2.86 kcal/mol
DOCKED: USER    (3) Torsional Free Energy           =   +2.98 kcal/mol
DOCKED: USER    (4) Unbound System's Energy  [=(2)] =   -2.86 kcal/mol
DOCKED: USER    
DOCKED: USER    
DOCKED: USER    NEWDPF move ligand.dum.pdbqt
DOCKED: USER    NEWDPF about 1.858000 0.218000 -0.021000
DOCKED: USER    NEWDPF tran0 36.566805 17.170102 122.537609
DOCKED: USER    NEWDPF quaternion0 0.276296 0.759536 0.412226 0.420518
DOCKED: USER    NEWDPF axisangle0 0.304531 0.837153 0.454352 130.265376
DOCKED: USER    NEWDPF quat0 0.304531 0.837153 0.454352 130.265376
DOCKED: USER    NEWDPF dihe0 -155.50 -167.59 3.31 177.60 -12.29 164.58 -84.26 -95.43 127.14 168.28 
DOCKED: USER  keepresnum = 1 
DOCKED: USER  
DOCKED: REMARK  Name = 
DOCKED: REMARK  12 active torsions:
DOCKED: REMARK  status: ('A' for Active; 'I' for Inactive)
DOCKED: REMARK    1  A    between atoms: C_2  and  O_3
DOCKED: REMARK    2  A    between atoms: O_3  and  C_4
DOCKED: REMARK    3  A    between atoms: C_4  and  C_5
DOCKED: REMARK    4  A    between atoms: C_10  and  C_11
DOCKED: REMARK    5  A    between atoms: C_11  and  N_12
DOCKED: REMARK    6  A    between atoms: N_12  and  C_13
DOCKED: REMARK    7  A    between atoms: N_12  and  C_15
DOCKED: REMARK    8  A    between atoms: C_13  and  C_14
DOCKED: REMARK    9  A    between atoms: C_15  and  C_16
DOCKED: REMARK   10  A    between atoms: N_21  and  C_22
DOCKED: REMARK   11  A    between atoms: C_25  and  C_26
DOCKED: REMARK   12  A    between atoms: N_27  and  O_28
DOCKED: REMARK                            x       y       z     vdW  Elec       q    Type
DOCKED: REMARK                         _______ _______ _______ _____ _____    ______ ____
DOCKED: USER                              x       y       z     vdW  Elec       q    Type
DOCKED: USER                           _______ _______ _______ _____ _____    ______ ____
DOCKED: ROOT
DOCKED: ATOM      1  C   UNL     1      35.524  18.113 121.683 -0.27 -0.00    +0.000 C 
DOCKED: ENDROOT
DOCKED: BRANCH   1   2
DOCKED: ATOM      2  C   UNL     1      36.349  17.508 120.585 -0.15 -0.00    +0.000 A 
DOCKED: ATOM      3  C   UNL     1      37.496  18.167 120.119 -0.07 -0.00    +0.000 A 
DOCKED: ATOM      4  C   UNL     1      38.249  17.627 119.073 -0.04 -0.00    +0.000 A 
DOCKED: ATOM      5  C   UNL     1      37.854  16.424 118.468 -0.10 -0.00    +0.000 A 
DOCKED: ATOM      6  C   UNL     1      38.603  15.875 117.416 -0.13 -0.00    +0.000 A 
DOCKED: ATOM      7  C   UNL     1      38.200  14.674 116.811 -0.24 -0.00    +0.000 A 
DOCKED: ATOM      8  C   UNL     1      37.044  14.021 117.267 -0.33 -0.00    +0.000 A 
DOCKED: ATOM      9  C   UNL     1      36.293  14.562 118.313 -0.28 -0.00    +0.000 A 
DOCKED: ATOM     10  C   UNL     1      36.689  15.762 118.921 -0.17 -0.00    +0.000 A 
DOCKED: ATOM     11  C   UNL     1      35.940  16.312 119.972 +0.02 -0.00    +0.000 A 
DOCKED: ATOM     12  CM  UNL     1      37.096  16.967 119.523 +0.00 -0.00    +0.000 AC
DOCKED: ATOM     13  CM  UNL     1      37.447  15.220 117.866 +0.00 -0.00    +0.000 AC
DOCKED: BRANCH   7  12
DOCKED: ATOM     14  C   UNL     1      39.009  14.067 115.693 -0.42 -0.00    +0.000 C 
DOCKED: BRANCH  12  13
DOCKED: ATOM     15  N   UNL     1      38.634  14.683 114.403 -0.26 -0.00    +0.000 N 
DOCKED: ATOM     16  H   UNL     1      38.727  13.975 113.675 +0.00 -0.00    +0.000 HD
DOCKED: BRANCH  13  15
DOCKED: ATOM     17  C   UNL     1      39.573  15.767 114.027 -0.22 -0.00    +0.000 C 
DOCKED: ATOM     18  C   UNL     1      40.810  15.787 114.924 -0.26 -0.00    +0.000 C 
DOCKED: ENDBRANCH  13  15
DOCKED: BRANCH  13  17
DOCKED: ATOM     19  C   UNL     1      37.204  15.079 114.367 -0.20 -0.00    +0.000 C 
DOCKED: ATOM     20  C   UNL     1      36.296  14.098 113.612 -0.27 -0.00    +0.000 C 
DOCKED: ENDBRANCH  13  17
DOCKED: ENDBRANCH  12  13
DOCKED: ENDBRANCH   7  12
DOCKED: ENDBRANCH   1   2
DOCKED: BRANCH   1  19
DOCKED: ATOM     21  O   UNL     1      35.823  17.456 122.910 -0.26 -0.00    +0.000 OA
DOCKED: BRANCH  19  21
DOCKED: ATOM     22  O   UNL     1      34.735  15.520 123.537 -0.56 -0.00    +0.000 OA
DOCKED: ATOM     23  C   UNL     1      35.766  16.068 123.057 -0.39 -0.00    +0.000 C 
DOCKED: ATOM     24  N   UNL     1      36.910  15.282 122.698 -0.34 -0.00    +0.000 N 
DOCKED: ATOM     25  H   UNL     1      37.744  15.757 122.479 -0.00 -0.00    +0.000 HD
DOCKED: BRANCH  22  24
DOCKED: ATOM     26  C   UNL     1      36.920  13.845 122.635 -0.44 -0.00    +0.000 A 
DOCKED: ATOM     27  C   UNL     1      37.387  13.212 121.475 -0.43 -0.00    +0.000 A 
DOCKED: ATOM     28  C   UNL     1      37.388  11.817 121.379 -0.41 -0.00    +0.000 A 
DOCKED: ATOM     29  C   UNL     1      36.912  11.027 122.439 -0.53 -0.00    +0.000 A 
DOCKED: ATOM     30  C   UNL     1      36.410  11.665 123.588 -0.63 -0.00    +0.000 A 
DOCKED: ATOM     31  C   UNL     1      36.410  13.060 123.684 -0.54 -0.00    +0.000 A 
DOCKED: ATOM     32  CM  UNL     1      36.904  12.437 122.533 +0.00 -0.00    +0.000 AC
DOCKED: BRANCH  27  30
DOCKED: ATOM     33  C   UNL     1      36.914   9.548 122.321 -0.65 -0.00    +0.000 C 
DOCKED: ATOM     34  N   UNL     1      37.167   8.709 123.454 -0.61 -0.00    +0.000 N 
DOCKED: ATOM     35  O   UNL     1      36.704   9.014 121.198 -2.63 -0.00    +0.000 OA
DOCKED: ATOM     36  H   UNL     1      37.417   9.112 124.317 -0.61 -0.00    +0.000 HD
DOCKED: BRANCH  31  34
DOCKED: ATOM     37  O   UNL     1      37.064   7.363 123.344 -2.13 -0.00    +0.000 OA
DOCKED: ATOM     38  H   UNL     1      36.863   7.128 122.425 -0.08 -0.00    +0.000 HD
DOCKED: ENDBRANCH  31  34
DOCKED: ENDBRANCH  27  30
DOCKED: ENDBRANCH  22  24
DOCKED: ENDBRANCH  19  21
DOCKED: ENDBRANCH   1  19
DOCKED: TORSDOF 10DOCKED: TER
DOCKED: ENDMDL
________________________________________________________________________________


	BEGINNING GENETIC ALGORITHM DOCKING 15 of 100
Run: 15 Seed: 310346241 504995992 [ Run 15 of 100 GA/GALS ]
Beginning LAMARCKIAN GENETIC ALGORITHM (LGA), with a maximum of 2500000 energy evaluations.

Final-Value: -17.915


	FINAL GENETIC ALGORITHM DOCKED STATE
	_______________________________________________


Detailed state:  trans 37.088 17.283 123.005 quatxyzw 0.872064 -0.046945 -0.485704 0.037322 center 1.858 0.218 -0.021 ntor 10 -131.0023 171.2331 12.4316 -45.0893 -180.0000 119.5706 -155.0927 -119.8733 -100.2033 -20.7550
State:	 37.088  17.283 123.005   0.873 -0.047 -0.486 175.722   -131.00  171.23   12.43  -45.09 -180.00  119.57 -155.09 -119.87 -100.20  -20.76

DOCKED: MODEL       15
DOCKED: USER    Run = 15
DOCKED: USER    DPF = ligand_dock.biased.dpf
DOCKED: USER  
DOCKED: USER    Estimated Free Energy of Binding    =  -12.63 kcal/mol  [=(1)+(2)+(3)-(4)]
DOCKED: USER    Estimated Inhibition Constant, Ki   =  551.87 pM (picomolar)  [Temperature = 298.15 K]
DOCKED: USER    
DOCKED: USER    (1) Final Intermolecular Energy     =  -15.61 kcal/mol
DOCKED: USER        vdW + Hbond + desolv Energy     =  -15.61 kcal/mol
DOCKED: USER        Electrostatic Energy            =   +0.00 kcal/mol
DOCKED: USER    (2) Final Total Internal Energy     =   -2.30 kcal/mol
DOCKED: USER    (3) Torsional Free Energy           =   +2.98 kcal/mol
DOCKED: USER    (4) Unbound System's Energy  [=(2)] =   -2.30 kcal/mol
DOCKED: USER    
DOCKED: USER    
DOCKED: USER    NEWDPF move ligand.dum.pdbqt
DOCKED: USER    NEWDPF about 1.858000 0.218000 -0.021000
DOCKED: USER    NEWDPF tran0 37.088337 17.283212 123.005040
DOCKED: USER    NEWDPF quaternion0 0.872064 -0.046945 -0.485704 0.037322
DOCKED: USER    NEWDPF axisangle0 0.872672 -0.046977 -0.486042 175.722244
DOCKED: USER    NEWDPF quat0 0.872672 -0.046977 -0.486042 175.722244
DOCKED: USER    NEWDPF dihe0 -131.00 171.23 12.43 -45.09 -180.00 119.57 -155.09 -119.87 -100.20 -20.76 
DOCKED: USER  keepresnum = 1 
DOCKED: USER  
DOCKED: REMARK  Name = 
DOCKED: REMARK  12 active torsions:
DOCKED: REMARK  status: ('A' for Active; 'I' for Inactive)
DOCKED: REMARK    1  A    between atoms: C_2  and  O_3
DOCKED: REMARK    2  A    between atoms: O_3  and  C_4
DOCKED: REMARK    3  A    between atoms: C_4  and  C_5
DOCKED: REMARK    4  A    between atoms: C_10  and  C_11
DOCKED: REMARK    5  A    between atoms: C_11  and  N_12
DOCKED: REMARK    6  A    between atoms: N_12  and  C_13
DOCKED: REMARK    7  A    between atoms: N_12  and  C_15
DOCKED: REMARK    8  A    between atoms: C_13  and  C_14
DOCKED: REMARK    9  A    between atoms: C_15  and  C_16
DOCKED: REMARK   10  A    between atoms: N_21  and  C_22
DOCKED: REMARK   11  A    between atoms: C_25  and  C_26
DOCKED: REMARK   12  A    between atoms: N_27  and  O_28
DOCKED: REMARK                            x       y       z     vdW  Elec       q    Type
DOCKED: REMARK                         _______ _______ _______ _____ _____    ______ ____
DOCKED: USER                              x       y       z     vdW  Elec       q    Type
DOCKED: USER                           _______ _______ _______ _____ _____    ______ ____
DOCKED: ROOT
DOCKED: ATOM      1  C   UNL     1      35.818  18.110 122.363 -0.25 -0.00    +0.000 C 
DOCKED: ENDROOT
DOCKED: BRANCH   1   2
DOCKED: ATOM      2  C   UNL     1      35.537  18.222 123.833 -0.25 -0.00    +0.000 A 
DOCKED: ATOM      3  C   UNL     1      36.222  19.166 124.613 -0.17 -0.00    +0.000 A 
DOCKED: ATOM      4  C   UNL     1      35.990  19.251 125.988 -0.15 -0.00    +0.000 A 
DOCKED: ATOM      5  C   UNL     1      35.078  18.383 126.605 -0.18 -0.00    +0.000 A 
DOCKED: ATOM      6  C   UNL     1      34.840  18.460 127.986 -0.14 -0.00    +0.000 A 
DOCKED: ATOM      7  C   UNL     1      33.929  17.585 128.599 -0.21 -0.00    +0.000 A 
DOCKED: ATOM      8  C   UNL     1      33.254  16.631 127.821 -0.39 -0.00    +0.000 A 
DOCKED: ATOM      9  C   UNL     1      33.486  16.547 126.446 -0.32 -0.00    +0.000 A 
DOCKED: ATOM     10  C   UNL     1      34.395  17.417 125.828 -0.33 -0.00    +0.000 A 
DOCKED: ATOM     11  C   UNL     1      34.634  17.340 124.448 -0.38 -0.00    +0.000 A 
DOCKED: ATOM     12  CM  UNL     1      35.309  18.296 125.219 -0.34 -0.00    +0.000 AC
DOCKED: ATOM     13  CM  UNL     1      34.164  17.503 127.214 -0.01 -0.00    +0.000 AC
DOCKED: BRANCH   7  12
DOCKED: ATOM     14  C   UNL     1      33.653  17.674 130.077 -0.19 -0.00    +0.000 C 
DOCKED: BRANCH  12  13
DOCKED: ATOM     15  N   UNL     1      33.793  16.341 130.702 -0.25 -0.00    +0.000 N 
DOCKED: ATOM     16  H   UNL     1      33.881  15.650 129.958 -0.47 -0.00    +0.000 HD
DOCKED: BRANCH  13  15
DOCKED: ATOM     17  C   UNL     1      32.574  15.966 131.456 -0.28 -0.00    +0.000 C 
DOCKED: ATOM     18  C   UNL     1      31.304  16.480 130.780 -0.27 -0.00    +0.000 C 
DOCKED: ENDBRANCH  13  15
DOCKED: BRANCH  13  17
DOCKED: ATOM     19  C   UNL     1      35.051  16.220 131.482 -0.23 -0.00    +0.000 C 
DOCKED: ATOM     20  C   UNL     1      35.969  15.077 131.025 -0.37 -0.00    +0.000 C 
DOCKED: ENDBRANCH  13  17
DOCKED: ENDBRANCH  12  13
DOCKED: ENDBRANCH   7  12
DOCKED: ENDBRANCH   1   2
DOCKED: BRANCH   1  19
DOCKED: ATOM     21  O   UNL     1      37.125  17.575 122.176 -0.16 -0.00    +0.000 OA
DOCKED: BRANCH  19  21
DOCKED: ATOM     22  O   UNL     1      38.246  15.797 123.128 -0.35 -0.00    +0.000 OA
DOCKED: ATOM     23  C   UNL     1      37.404  16.210 122.282 -0.26 -0.00    +0.000 C 
DOCKED: ATOM     24  N   UNL     1      36.756  15.295 121.391 -0.23 -0.00    +0.000 N 
DOCKED: ATOM     25  H   UNL     1      36.231  15.670 120.647 -0.01 -0.00    +0.000 HD
DOCKED: BRANCH  22  24
DOCKED: ATOM     26  C   UNL     1      36.820  13.863 121.509 -0.19 -0.00    +0.000 A 
DOCKED: ATOM     27  C   UNL     1      36.395  13.252 122.697 -0.45 -0.00    +0.000 A 
DOCKED: ATOM     28  C   UNL     1      36.466  11.864 122.847 -0.60 -0.00    +0.000 A 
DOCKED: ATOM     29  C   UNL     1      36.974  11.059 121.813 -0.48 -0.00    +0.000 A 
DOCKED: ATOM     30  C   UNL     1      37.433  11.676 120.636 -0.43 -0.00    +0.000 A 
DOCKED: ATOM     31  C   UNL     1      37.360  13.065 120.486 -0.42 -0.00    +0.000 A 
DOCKED: ATOM     32  CM  UNL     1      36.908  12.463 121.665 +0.00 -0.00    +0.000 AC
DOCKED: BRANCH  27  30
DOCKED: ATOM     33  C   UNL     1      37.048   9.588 121.988 -0.61 -0.00    +0.000 C 
DOCKED: ATOM     34  N   UNL     1      37.081   8.991 123.290 -0.62 -0.00    +0.000 N 
DOCKED: ATOM     35  O   UNL     1      37.098   8.843 120.971 -2.68 -0.00    +0.000 OA
DOCKED: ATOM     36  H   UNL     1      37.129   9.562 124.090 -0.55 -0.00    +0.000 HD
DOCKED: BRANCH  31  34
DOCKED: ATOM     37  O   UNL     1      37.046   7.643 123.425 -2.25 -0.00    +0.000 OA
DOCKED: ATOM     38  H   UNL     1      37.197   7.228 122.562 -0.13 -0.00    +0.000 HD
DOCKED: ENDBRANCH  31  34
DOCKED: ENDBRANCH  27  30
DOCKED: ENDBRANCH  22  24
DOCKED: ENDBRANCH  19  21
DOCKED: ENDBRANCH   1  19
DOCKED: TORSDOF 10DOCKED: TER
DOCKED: ENDMDL
________________________________________________________________________________


	BEGINNING GENETIC ALGORITHM DOCKING 16 of 100
Run: 16 Seed: 1304048924 769789760 [ Run 16 of 100 GA/GALS ]
Beginning LAMARCKIAN GENETIC ALGORITHM (LGA), with a maximum of 2500000 energy evaluations.

Final-Value: -18.466


	FINAL GENETIC ALGORITHM DOCKED STATE
	_______________________________________________


Detailed state:  trans 37.583 16.836 123.251 quatxyzw 0.931809 0.018281 -0.275629 0.235427 center 1.858 0.218 -0.021 ntor 10 176.0325 114.0630 12.9437 -152.3834 -168.4983 -8.4591 -133.1011 -178.4095 -107.8571 177.2609
State:	 37.583  16.836 123.251   0.959  0.019 -0.284 152.766    176.03  114.06   12.94 -152.38 -168.50   -8.46 -133.10 -178.41 -107.86  177.26

DOCKED: MODEL       16
DOCKED: USER    Run = 16
DOCKED: USER    DPF = ligand_dock.biased.dpf
DOCKED: USER  
DOCKED: USER    Estimated Free Energy of Binding    =  -13.33 kcal/mol  [=(1)+(2)+(3)-(4)]
DOCKED: USER    Estimated Inhibition Constant, Ki   =  170.14 pM (picomolar)  [Temperature = 298.15 K]
DOCKED: USER    
DOCKED: USER    (1) Final Intermolecular Energy     =  -16.31 kcal/mol
DOCKED: USER        vdW + Hbond + desolv Energy     =  -16.31 kcal/mol
DOCKED: USER        Electrostatic Energy            =   +0.00 kcal/mol
DOCKED: USER    (2) Final Total Internal Energy     =   -2.16 kcal/mol
DOCKED: USER    (3) Torsional Free Energy           =   +2.98 kcal/mol
DOCKED: USER    (4) Unbound System's Energy  [=(2)] =   -2.16 kcal/mol
DOCKED: USER    
DOCKED: USER    
DOCKED: USER    NEWDPF move ligand.dum.pdbqt
DOCKED: USER    NEWDPF about 1.858000 0.218000 -0.021000
DOCKED: USER    NEWDPF tran0 37.583332 16.835651 123.251422
DOCKED: USER    NEWDPF quaternion0 0.931809 0.018281 -0.275629 0.235427
DOCKED: USER    NEWDPF axisangle0 0.958758 0.018810 -0.283601 152.766405
DOCKED: USER    NEWDPF quat0 0.958758 0.018810 -0.283601 152.766405
DOCKED: USER    NEWDPF dihe0 176.03 114.06 12.94 -152.38 -168.50 -8.46 -133.10 -178.41 -107.86 177.26 
DOCKED: USER  keepresnum = 1 
DOCKED: USER  
DOCKED: REMARK  Name = 
DOCKED: REMARK  12 active torsions:
DOCKED: REMARK  status: ('A' for Active; 'I' for Inactive)
DOCKED: REMARK    1  A    between atoms: C_2  and  O_3
DOCKED: REMARK    2  A    between atoms: O_3  and  C_4
DOCKED: REMARK    3  A    between atoms: C_4  and  C_5
DOCKED: REMARK    4  A    between atoms: C_10  and  C_11
DOCKED: REMARK    5  A    between atoms: C_11  and  N_12
DOCKED: REMARK    6  A    between atoms: N_12  and  C_13
DOCKED: REMARK    7  A    between atoms: N_12  and  C_15
DOCKED: REMARK    8  A    between atoms: C_13  and  C_14
DOCKED: REMARK    9  A    between atoms: C_15  and  C_16
DOCKED: REMARK   10  A    between atoms: N_21  and  C_22
DOCKED: REMARK   11  A    between atoms: C_25  and  C_26
DOCKED: REMARK   12  A    between atoms: N_27  and  O_28
DOCKED: REMARK                            x       y       z     vdW  Elec       q    Type
DOCKED: REMARK                         _______ _______ _______ _____ _____    ______ ____
DOCKED: USER                              x       y       z     vdW  Elec       q    Type
DOCKED: USER                           _______ _______ _______ _____ _____    ______ ____
DOCKED: ROOT
DOCKED: ATOM      1  C   UNL     1      36.730  18.038 122.520 -0.18 -0.00    +0.000 C 
DOCKED: ENDROOT
DOCKED: BRANCH   1   2
DOCKED: ATOM      2  C   UNL     1      35.824  17.679 123.662 -0.26 -0.00    +0.000 A 
DOCKED: ATOM      3  C   UNL     1      34.948  16.588 123.552 -0.40 -0.00    +0.000 A 
DOCKED: ATOM      4  C   UNL     1      34.077  16.271 124.598 -0.45 -0.00    +0.000 A 
DOCKED: ATOM      5  C   UNL     1      34.060  17.051 125.763 -0.39 -0.00    +0.000 A 
DOCKED: ATOM      6  C   UNL     1      33.187  16.740 126.817 -0.32 -0.00    +0.000 A 
DOCKED: ATOM      7  C   UNL     1      33.171  17.528 127.980 -0.29 -0.00    +0.000 A 
DOCKED: ATOM      8  C   UNL     1      34.037  18.628 128.084 -0.15 -0.00    +0.000 A 
DOCKED: ATOM      9  C   UNL     1      34.908  18.944 127.038 -0.16 -0.00    +0.000 A 
DOCKED: ATOM     10  C   UNL     1      34.928  18.163 125.874 -0.25 -0.00    +0.000 A 
DOCKED: ATOM     11  C   UNL     1      35.800  18.473 124.819 -0.22 -0.00    +0.000 A 
DOCKED: ATOM     12  CM  UNL     1      34.940  17.371 124.711 -0.39 -0.00    +0.000 AC
DOCKED: ATOM     13  CM  UNL     1      34.049  17.843 126.926 -0.03 -0.00    +0.000 AC
DOCKED: BRANCH   7  12
DOCKED: ATOM     14  C   UNL     1      32.251  17.190 129.124 -0.36 -0.00    +0.000 C 
DOCKED: BRANCH  12  13
DOCKED: ATOM     15  N   UNL     1      33.011  16.537 130.211 -0.27 -0.00    +0.000 N 
DOCKED: ATOM     16  H   UNL     1      32.645  15.593 130.330 -0.49 -0.00    +0.000 HD
DOCKED: BRANCH  13  15
DOCKED: ATOM     17  C   UNL     1      32.792  17.217 131.509 -0.23 -0.00    +0.000 C 
DOCKED: ATOM     18  C   UNL     1      32.221  18.623 131.327 -0.14 -0.00    +0.000 C 
DOCKED: ENDBRANCH  13  15
DOCKED: BRANCH  13  17
DOCKED: ATOM     19  C   UNL     1      34.440  16.348 129.858 -0.23 -0.00    +0.000 C 
DOCKED: ATOM     20  C   UNL     1      35.273  15.654 130.946 -0.28 -0.00    +0.000 C 
DOCKED: ENDBRANCH  13  17
DOCKED: ENDBRANCH  12  13
DOCKED: ENDBRANCH   7  12
DOCKED: ENDBRANCH   1   2
DOCKED: BRANCH   1  19
DOCKED: ATOM     21  O   UNL     1      37.984  17.386 122.695 -0.17 -0.00    +0.000 OA
DOCKED: BRANCH  19  21
DOCKED: ATOM     22  O   UNL     1      39.283  15.480 122.694 -0.38 -0.00    +0.000 OA
DOCKED: ATOM     23  C   UNL     1      38.152  16.011 122.518 -0.29 -0.00    +0.000 C 
DOCKED: ATOM     24  N   UNL     1      37.033  15.221 122.093 -0.29 -0.00    +0.000 N 
DOCKED: ATOM     25  H   UNL     1      36.215  15.695 121.816 -0.01 -0.00    +0.000 HD
DOCKED: BRANCH  22  24
DOCKED: ATOM     26  C   UNL     1      37.025  13.784 122.045 -0.39 -0.00    +0.000 A 
DOCKED: ATOM     27  C   UNL     1      36.830  13.058 123.227 -0.54 -0.00    +0.000 A 
DOCKED: ATOM     28  C   UNL     1      36.840  11.661 123.212 -0.61 -0.00    +0.000 A 
DOCKED: ATOM     29  C   UNL     1      37.053  10.960 122.012 -0.47 -0.00    +0.000 A 
DOCKED: ATOM     30  C   UNL     1      37.284  11.690 120.833 -0.43 -0.00    +0.000 A 
DOCKED: ATOM     31  C   UNL     1      37.273  13.088 120.849 -0.42 -0.00    +0.000 A 
DOCKED: ATOM     32  CM  UNL     1      37.051  12.373 122.030 +0.00 -0.00    +0.000 AC
DOCKED: BRANCH  27  30
DOCKED: ATOM     33  C   UNL     1      37.064   9.477 122.012 -0.62 -0.00    +0.000 C 
DOCKED: ATOM     34  N   UNL     1      37.099   8.729 123.234 -0.66 -0.00    +0.000 N 
DOCKED: ATOM     35  O   UNL     1      37.058   8.856 120.914 -2.71 -0.00    +0.000 OA
DOCKED: ATOM     36  H   UNL     1      37.189   9.200 124.094 -0.56 -0.00    +0.000 HD
DOCKED: BRANCH  31  34
DOCKED: ATOM     37  O   UNL     1      37.006   7.378 123.211 -2.14 -0.00    +0.000 OA
DOCKED: ATOM     38  H   UNL     1      37.127   7.061 122.303 -0.13 -0.00    +0.000 HD
DOCKED: ENDBRANCH  31  34
DOCKED: ENDBRANCH  27  30
DOCKED: ENDBRANCH  22  24
DOCKED: ENDBRANCH  19  21
DOCKED: ENDBRANCH   1  19
DOCKED: TORSDOF 10DOCKED: TER
DOCKED: ENDMDL
________________________________________________________________________________


	BEGINNING GENETIC ALGORITHM DOCKING 17 of 100
Run: 17 Seed: 932514854 1437199579 [ Run 17 of 100 GA/GALS ]
Beginning LAMARCKIAN GENETIC ALGORITHM (LGA), with a maximum of 2500000 energy evaluations.

Final-Value: -18.961


	FINAL GENETIC ALGORITHM DOCKED STATE
	_______________________________________________


Detailed state:  trans 34.261 17.399 123.759 quatxyzw -0.391425 0.490271 -0.046682 -0.777330 center 1.858 0.218 -0.021 ntor 10 -144.2162 64.4714 14.8602 179.8145 -179.9682 -177.0924 87.0972 104.7239 85.8638 166.6498
State:	 34.261  17.399 123.759  -0.622  0.779 -0.074 -77.967   -144.22   64.47   14.86  179.81 -179.97 -177.09   87.10  104.72   85.86  166.65

DOCKED: MODEL       17
DOCKED: USER    Run = 17
DOCKED: USER    DPF = ligand_dock.biased.dpf
DOCKED: USER  
DOCKED: USER    Estimated Free Energy of Binding    =  -13.77 kcal/mol  [=(1)+(2)+(3)-(4)]
DOCKED: USER    Estimated Inhibition Constant, Ki   =   80.71 pM (picomolar)  [Temperature = 298.15 K]
DOCKED: USER    
DOCKED: USER    (1) Final Intermolecular Energy     =  -16.75 kcal/mol
DOCKED: USER        vdW + Hbond + desolv Energy     =  -16.75 kcal/mol
DOCKED: USER        Electrostatic Energy            =   +0.00 kcal/mol
DOCKED: USER    (2) Final Total Internal Energy     =   -2.21 kcal/mol
DOCKED: USER    (3) Torsional Free Energy           =   +2.98 kcal/mol
DOCKED: USER    (4) Unbound System's Energy  [=(2)] =   -2.21 kcal/mol
DOCKED: USER    
DOCKED: USER    
DOCKED: USER    NEWDPF move ligand.dum.pdbqt
DOCKED: USER    NEWDPF about 1.858000 0.218000 -0.021000
DOCKED: USER    NEWDPF tran0 34.260787 17.399189 123.758890
DOCKED: USER    NEWDPF quaternion0 -0.391425 0.490271 -0.046682 -0.777330
DOCKED: USER    NEWDPF axisangle0 -0.622206 0.779329 -0.074205 -77.966543
DOCKED: USER    NEWDPF quat0 -0.622206 0.779329 -0.074205 -77.966543
DOCKED: USER    NEWDPF dihe0 -144.22 64.47 14.86 179.81 -179.97 -177.09 87.10 104.72 85.86 166.65 
DOCKED: USER  keepresnum = 1 
DOCKED: USER  
DOCKED: REMARK  Name = 
DOCKED: REMARK  12 active torsions:
DOCKED: REMARK  status: ('A' for Active; 'I' for Inactive)
DOCKED: REMARK    1  A    between atoms: C_2  and  O_3
DOCKED: REMARK    2  A    between atoms: O_3  and  C_4
DOCKED: REMARK    3  A    between atoms: C_4  and  C_5
DOCKED: REMARK    4  A    between atoms: C_10  and  C_11
DOCKED: REMARK    5  A    between atoms: C_11  and  N_12
DOCKED: REMARK    6  A    between atoms: N_12  and  C_13
DOCKED: REMARK    7  A    between atoms: N_12  and  C_15
DOCKED: REMARK    8  A    between atoms: C_13  and  C_14
DOCKED: REMARK    9  A    between atoms: C_15  and  C_16
DOCKED: REMARK   10  A    between atoms: N_21  and  C_22
DOCKED: REMARK   11  A    between atoms: C_25  and  C_26
DOCKED: REMARK   12  A    between atoms: N_27  and  O_28
DOCKED: REMARK                            x       y       z     vdW  Elec       q    Type
DOCKED: REMARK                         _______ _______ _______ _____ _____    ______ ____
DOCKED: USER                              x       y       z     vdW  Elec       q    Type
DOCKED: USER                           _______ _______ _______ _____ _____    ______ ____
DOCKED: ROOT
DOCKED: ATOM      1  C   UNL     1      35.583  17.861 124.623 -0.30 -0.00    +0.000 C 
DOCKED: ENDROOT
DOCKED: BRANCH   1   2
DOCKED: ATOM      2  C   UNL     1      34.477  18.134 125.600 -0.31 -0.00    +0.000 A 
DOCKED: ATOM      3  C   UNL     1      33.894  19.409 125.668 -0.20 -0.00    +0.000 A 
DOCKED: ATOM      4  C   UNL     1      32.888  19.679 126.600 -0.22 -0.00    +0.000 A 
DOCKED: ATOM      5  C   UNL     1      32.462  18.680 127.487 -0.21 -0.00    +0.000 A 
DOCKED: ATOM      6  C   UNL     1      31.453  18.943 128.427 -0.20 -0.00    +0.000 A 
DOCKED: ATOM      7  C   UNL     1      31.034  17.940 129.316 -0.31 -0.00    +0.000 A 
DOCKED: ATOM      8  C   UNL     1      31.627  16.669 129.257 -0.38 -0.00    +0.000 A 
DOCKED: ATOM      9  C   UNL     1      32.632  16.400 128.325 -0.39 -0.00    +0.000 A 
DOCKED: ATOM     10  C   UNL     1      33.056  17.397 127.435 -0.33 -0.00    +0.000 A 
DOCKED: ATOM     11  C   UNL     1      34.065  17.135 126.496 -0.32 -0.00    +0.000 A 
DOCKED: ATOM     12  CM  UNL     1      33.474  18.405 126.547 -0.02 -0.00    +0.000 AC
DOCKED: ATOM     13  CM  UNL     1      32.044  17.671 128.375 +0.00 -0.00    +0.000 AC
DOCKED: BRANCH   7  12
DOCKED: ATOM     14  C   UNL     1      29.939  18.208 130.315 -0.24 -0.00    +0.000 C 
DOCKED: BRANCH  12  13
DOCKED: ATOM     15  N   UNL     1      30.385  19.217 131.300 -0.20 -0.00    +0.000 N 
DOCKED: ATOM     16  H   UNL     1      29.976  18.980 132.203 -0.58 -0.00    +0.000 HD
DOCKED: BRANCH  13  15
DOCKED: ATOM     17  C   UNL     1      29.867  20.565 130.966 -0.25 -0.00    +0.000 C 
DOCKED: ATOM     18  C   UNL     1      28.629  20.495 130.074 -0.41 -0.00    +0.000 C 
DOCKED: ENDBRANCH  13  15
DOCKED: BRANCH  13  17
DOCKED: ATOM     19  C   UNL     1      31.852  19.168 131.523 -0.12 -0.00    +0.000 C 
DOCKED: ATOM     20  C   UNL     1      32.547  20.535 131.448 -0.04 -0.00    +0.000 C 
DOCKED: ENDBRANCH  13  17
DOCKED: ENDBRANCH  12  13
DOCKED: ENDBRANCH   7  12
DOCKED: ENDBRANCH   1   2
DOCKED: BRANCH   1  19
DOCKED: ATOM     21  O   UNL     1      35.062  17.129 123.518 -0.37 -0.00    +0.000 OA
DOCKED: BRANCH  19  21
DOCKED: ATOM     22  O   UNL     1      34.065  15.054 123.670 -0.65 -0.00    +0.000 OA
DOCKED: ATOM     23  C   UNL     1      35.106  15.734 123.450 -0.49 -0.00    +0.000 C 
DOCKED: ATOM     24  N   UNL     1      36.354  15.088 123.170 -0.41 -0.00    +0.000 N 
DOCKED: ATOM     25  H   UNL     1      37.167  15.643 123.162 -0.01 -0.00    +0.000 HD
DOCKED: BRANCH  22  24
DOCKED: ATOM     26  C   UNL     1      36.499  13.683 122.900 -0.46 -0.00    +0.000 A 
DOCKED: ATOM     27  C   UNL     1      36.111  12.753 123.874 -0.53 -0.00    +0.000 A 
DOCKED: ATOM     28  C   UNL     1      36.261  11.382 123.647 -0.60 -0.00    +0.000 A 
DOCKED: ATOM     29  C   UNL     1      36.811  10.913 122.442 -0.56 -0.00    +0.000 A 
DOCKED: ATOM     30  C   UNL     1      37.233  11.849 121.480 -0.45 -0.00    +0.000 A 
DOCKED: ATOM     31  C   UNL     1      37.082  13.220 121.708 -0.42 -0.00    +0.000 A 
DOCKED: ATOM     32  CM  UNL     1      36.666  12.300 122.675 +0.00 -0.00    +0.000 AC
DOCKED: BRANCH  27  30
DOCKED: ATOM     33  C   UNL     1      36.968   9.456 122.216 -0.65 -0.00    +0.000 C 
DOCKED: ATOM     34  N   UNL     1      37.036   8.533 123.310 -0.69 -0.00    +0.000 N 
DOCKED: ATOM     35  O   UNL     1      37.059   9.016 121.037 -2.72 -0.00    +0.000 OA
DOCKED: ATOM     36  H   UNL     1      37.053   8.870 124.235 -0.53 -0.00    +0.000 HD
DOCKED: BRANCH  31  34
DOCKED: ATOM     37  O   UNL     1      37.078   7.199 123.077 -2.01 -0.00    +0.000 OA
DOCKED: ATOM     38  H   UNL     1      37.289   7.040 122.144 -0.18 -0.00    +0.000 HD
DOCKED: ENDBRANCH  31  34
DOCKED: ENDBRANCH  27  30
DOCKED: ENDBRANCH  22  24
DOCKED: ENDBRANCH  19  21
DOCKED: ENDBRANCH   1  19
DOCKED: TORSDOF 10DOCKED: TER
DOCKED: ENDMDL
________________________________________________________________________________


	BEGINNING GENETIC ALGORITHM DOCKING 18 of 100
Run: 18 Seed: 554289543 710898087 [ Run 18 of 100 GA/GALS ]
Beginning LAMARCKIAN GENETIC ALGORITHM (LGA), with a maximum of 2500000 energy evaluations.

Final-Value: -15.396


	FINAL GENETIC ALGORITHM DOCKED STATE
	_______________________________________________


Detailed state:  trans 38.228 17.481 123.168 quatxyzw 0.182611 0.021588 -0.947305 -0.262298 center 1.858 0.218 -0.021 ntor 10 5.9323 -178.8135 53.2251 -66.5049 -166.6467 178.1648 -139.4136 -56.8432 -74.2643 -59.6823
State:	 38.228  17.481 123.168   0.189  0.022 -0.982 -149.587      5.93 -178.81   53.23  -66.50 -166.65  178.16 -139.41  -56.84  -74.26  -59.68

DOCKED: MODEL       18
DOCKED: USER    Run = 18
DOCKED: USER    DPF = ligand_dock.biased.dpf
DOCKED: USER  
DOCKED: USER    Estimated Free Energy of Binding    =  -10.70 kcal/mol  [=(1)+(2)+(3)-(4)]
DOCKED: USER    Estimated Inhibition Constant, Ki   =   14.42 nM (nanomolar)  [Temperature = 298.15 K]
DOCKED: USER    
DOCKED: USER    (1) Final Intermolecular Energy     =  -13.68 kcal/mol
DOCKED: USER        vdW + Hbond + desolv Energy     =  -13.68 kcal/mol
DOCKED: USER        Electrostatic Energy            =   +0.00 kcal/mol
DOCKED: USER    (2) Final Total Internal Energy     =   -1.72 kcal/mol
DOCKED: USER    (3) Torsional Free Energy           =   +2.98 kcal/mol
DOCKED: USER    (4) Unbound System's Energy  [=(2)] =   -1.72 kcal/mol
DOCKED: USER    
DOCKED: USER    
DOCKED: USER    NEWDPF move ligand.dum.pdbqt
DOCKED: USER    NEWDPF about 1.858000 0.218000 -0.021000
DOCKED: USER    NEWDPF tran0 38.228107 17.480514 123.167818
DOCKED: USER    NEWDPF quaternion0 0.182611 0.021588 -0.947305 -0.262298
DOCKED: USER    NEWDPF axisangle0 0.189237 0.022371 -0.981677 -149.587087
DOCKED: USER    NEWDPF quat0 0.189237 0.022371 -0.981677 -149.587087
DOCKED: USER    NEWDPF dihe0 5.93 -178.81 53.23 -66.50 -166.65 178.16 -139.41 -56.84 -74.26 -59.68 
DOCKED: USER  keepresnum = 1 
DOCKED: USER  
DOCKED: REMARK  Name = 
DOCKED: REMARK  12 active torsions:
DOCKED: REMARK  status: ('A' for Active; 'I' for Inactive)
DOCKED: REMARK    1  A    between atoms: C_2  and  O_3
DOCKED: REMARK    2  A    between atoms: O_3  and  C_4
DOCKED: REMARK    3  A    between atoms: C_4  and  C_5
DOCKED: REMARK    4  A    between atoms: C_10  and  C_11
DOCKED: REMARK    5  A    between atoms: C_11  and  N_12
DOCKED: REMARK    6  A    between atoms: N_12  and  C_13
DOCKED: REMARK    7  A    between atoms: N_12  and  C_15
DOCKED: REMARK    8  A    between atoms: C_13  and  C_14
DOCKED: REMARK    9  A    between atoms: C_15  and  C_16
DOCKED: REMARK   10  A    between atoms: N_21  and  C_22
DOCKED: REMARK   11  A    between atoms: C_25  and  C_26
DOCKED: REMARK   12  A    between atoms: N_27  and  O_28
DOCKED: REMARK                            x       y       z     vdW  Elec       q    Type
DOCKED: REMARK                         _______ _______ _______ _____ _____    ______ ____
DOCKED: USER                              x       y       z     vdW  Elec       q    Type
DOCKED: USER                           _______ _______ _______ _____ _____    ______ ____
DOCKED: ROOT
DOCKED: ATOM      1  C   UNL     1      37.519  17.919 124.586 -0.18 -0.00    +0.000 C 
DOCKED: ENDROOT
DOCKED: BRANCH   1   2
DOCKED: ATOM      2  C   UNL     1      38.756  18.769 124.595 -0.15 -0.00    +0.000 A 
DOCKED: ATOM      3  C   UNL     1      39.198  19.384 123.414 -0.07 -0.00    +0.000 A 
DOCKED: ATOM      4  C   UNL     1      40.369  20.147 123.408 -0.05 -0.00    +0.000 A 
DOCKED: ATOM      5  C   UNL     1      41.121  20.293 124.582 -0.09 -0.00    +0.000 A 
DOCKED: ATOM      6  C   UNL     1      42.299  21.057 124.585 -0.09 -0.00    +0.000 A 
DOCKED: ATOM      7  C   UNL     1      43.051  21.196 125.762 -0.10 -0.00    +0.000 A 
DOCKED: ATOM      8  C   UNL     1      42.617  20.569 126.940 -0.09 -0.00    +0.000 A 
DOCKED: ATOM      9  C   UNL     1      41.446  19.806 126.946 -0.18 -0.00    +0.000 A 
DOCKED: ATOM     10  C   UNL     1      40.691  19.663 125.773 -0.16 -0.00    +0.000 A 
DOCKED: ATOM     11  C   UNL     1      39.514  18.899 125.769 -0.20 -0.00    +0.000 A 
DOCKED: ATOM     12  CM  UNL     1      39.941  19.526 124.591 +0.00 -0.00    +0.000 AC
DOCKED: ATOM     13  CM  UNL     1      41.871  20.430 125.765 +0.00 -0.00    +0.000 AC
DOCKED: BRANCH   7  12
DOCKED: ATOM     14  C   UNL     1      44.306  22.029 125.778 -0.12 -0.00    +0.000 C 
DOCKED: BRANCH  12  13
DOCKED: ATOM     15  N   UNL     1      45.374  21.355 125.010 -0.14 -0.00    +0.000 N 
DOCKED: ATOM     16  H   UNL     1      45.240  20.348 125.097 -0.26 -0.00    +0.000 HD
DOCKED: BRANCH  13  15
DOCKED: ATOM     17  C   UNL     1      46.712  21.630 125.585 -0.15 -0.00    +0.000 C 
DOCKED: ATOM     18  C   UNL     1      47.802  20.790 124.923 -0.19 -0.00    +0.000 C 
DOCKED: ENDBRANCH  13  15
DOCKED: BRANCH  13  17
DOCKED: ATOM     19  C   UNL     1      45.272  21.627 123.554 -0.10 -0.00    +0.000 C 
DOCKED: ATOM     20  C   UNL     1      44.892  20.403 122.708 -0.11 -0.00    +0.000 C 
DOCKED: ENDBRANCH  13  17
DOCKED: ENDBRANCH  12  13
DOCKED: ENDBRANCH   7  12
DOCKED: ENDBRANCH   1   2
DOCKED: BRANCH   1  19
DOCKED: ATOM     21  O   UNL     1      37.376  17.313 123.306 -0.23 -0.00    +0.000 OA
DOCKED: BRANCH  19  21
DOCKED: ATOM     22  O   UNL     1      38.781  15.483 123.335 -0.31 -0.00    +0.000 OA
DOCKED: ATOM     23  C   UNL     1      37.641  15.960 123.078 -0.33 -0.00    +0.000 C 
DOCKED: ATOM     24  N   UNL     1      36.617  15.135 122.508 -0.33 -0.00    +0.000 N 
DOCKED: ATOM     25  H   UNL     1      35.801  15.577 122.177 -0.01 -0.00    +0.000 HD
DOCKED: BRANCH  22  24
DOCKED: ATOM     26  C   UNL     1      36.699  13.705 122.387 -0.40 -0.00    +0.000 A 
DOCKED: ATOM     27  C   UNL     1      36.570  12.910 123.534 -0.56 -0.00    +0.000 A 
DOCKED: ATOM     28  C   UNL     1      36.668  11.518 123.448 -0.63 -0.00    +0.000 A 
DOCKED: ATOM     29  C   UNL     1      36.906  10.893 122.212 -0.52 -0.00    +0.000 A 
DOCKED: ATOM     30  C   UNL     1      37.071  11.694 121.068 -0.45 -0.00    +0.000 A 
DOCKED: ATOM     31  C   UNL     1      36.972  13.086 121.155 -0.38 -0.00    +0.000 A 
DOCKED: ATOM     32  CM  UNL     1      36.815  12.301 122.301 +0.00 -0.00    +0.000 AC
DOCKED: BRANCH  27  30
DOCKED: ATOM     33  C   UNL     1      37.012   9.415 122.137 -0.64 -0.00    +0.000 C 
DOCKED: ATOM     34  N   UNL     1      37.074   8.610 123.320 -0.67 -0.00    +0.000 N 
DOCKED: ATOM     35  O   UNL     1      37.064   8.853 121.010 -2.71 -0.00    +0.000 OA
DOCKED: ATOM     36  H   UNL     1      37.121   9.040 124.205 -0.57 -0.00    +0.000 HD
DOCKED: BRANCH  31  34
DOCKED: ATOM     37  O   UNL     1      37.068   7.258 123.228 -2.05 -0.00    +0.000 OA
DOCKED: ATOM     38  H   UNL     1      37.769   6.972 122.622 -0.47 -0.00    +0.000 HD
DOCKED: ENDBRANCH  31  34
DOCKED: ENDBRANCH  27  30
DOCKED: ENDBRANCH  22  24
DOCKED: ENDBRANCH  19  21
DOCKED: ENDBRANCH   1  19
DOCKED: TORSDOF 10DOCKED: TER
DOCKED: ENDMDL
________________________________________________________________________________


	BEGINNING GENETIC ALGORITHM DOCKING 19 of 100
Run: 19 Seed: 1551786957 2084993075 [ Run 19 of 100 GA/GALS ]
Beginning LAMARCKIAN GENETIC ALGORITHM (LGA), with a maximum of 2500000 energy evaluations.

Final-Value: -16.355


	FINAL GENETIC ALGORITHM DOCKED STATE
	_______________________________________________


Detailed state:  trans 37.648 17.020 122.407 quatxyzw 0.374715 0.556364 0.445817 0.592701 center 1.858 0.218 -0.021 ntor 10 62.9696 172.2048 21.3302 178.6702 169.0450 179.6370 -71.0908 93.1748 154.2458 30.0899
State:	 37.648  17.020 122.407   0.465  0.691  0.554 107.302     62.97  172.20   21.33  178.67  169.04  179.64  -71.09   93.17  154.25   30.09

DOCKED: MODEL       19
DOCKED: USER    Run = 19
DOCKED: USER    DPF = ligand_dock.biased.dpf
DOCKED: USER  
DOCKED: USER    Estimated Free Energy of Binding    =  -10.94 kcal/mol  [=(1)+(2)+(3)-(4)]
DOCKED: USER    Estimated Inhibition Constant, Ki   =    9.50 nM (nanomolar)  [Temperature = 298.15 K]
DOCKED: USER    
DOCKED: USER    (1) Final Intermolecular Energy     =  -13.93 kcal/mol
DOCKED: USER        vdW + Hbond + desolv Energy     =  -13.93 kcal/mol
DOCKED: USER        Electrostatic Energy            =   +0.00 kcal/mol
DOCKED: USER    (2) Final Total Internal Energy     =   -2.43 kcal/mol
DOCKED: USER    (3) Torsional Free Energy           =   +2.98 kcal/mol
DOCKED: USER    (4) Unbound System's Energy  [=(2)] =   -2.43 kcal/mol
DOCKED: USER    
DOCKED: USER    
DOCKED: USER    NEWDPF move ligand.dum.pdbqt
DOCKED: USER    NEWDPF about 1.858000 0.218000 -0.021000
DOCKED: USER    NEWDPF tran0 37.648123 17.019519 122.406956
DOCKED: USER    NEWDPF quaternion0 0.374715 0.556364 0.445817 0.592701
DOCKED: USER    NEWDPF axisangle0 0.465240 0.690774 0.553519 107.302130
DOCKED: USER    NEWDPF quat0 0.465240 0.690774 0.553519 107.302130
DOCKED: USER    NEWDPF dihe0 62.97 172.20 21.33 178.67 169.04 179.64 -71.09 93.17 154.25 30.09 
DOCKED: USER  keepresnum = 1 
DOCKED: USER  
DOCKED: REMARK  Name = 
DOCKED: REMARK  12 active torsions:
DOCKED: REMARK  status: ('A' for Active; 'I' for Inactive)
DOCKED: REMARK    1  A    between atoms: C_2  and  O_3
DOCKED: REMARK    2  A    between atoms: O_3  and  C_4
DOCKED: REMARK    3  A    between atoms: C_4  and  C_5
DOCKED: REMARK    4  A    between atoms: C_10  and  C_11
DOCKED: REMARK    5  A    between atoms: C_11  and  N_12
DOCKED: REMARK    6  A    between atoms: N_12  and  C_13
DOCKED: REMARK    7  A    between atoms: N_12  and  C_15
DOCKED: REMARK    8  A    between atoms: C_13  and  C_14
DOCKED: REMARK    9  A    between atoms: C_15  and  C_16
DOCKED: REMARK   10  A    between atoms: N_21  and  C_22
DOCKED: REMARK   11  A    between atoms: C_25  and  C_26
DOCKED: REMARK   12  A    between atoms: N_27  and  O_28
DOCKED: REMARK                            x       y       z     vdW  Elec       q    Type
DOCKED: REMARK                         _______ _______ _______ _____ _____    ______ ____
DOCKED: USER                              x       y       z     vdW  Elec       q    Type
DOCKED: USER                           _______ _______ _______ _____ _____    ______ ____
DOCKED: ROOT
DOCKED: ATOM      1  C   UNL     1      36.541  18.236 122.367 -0.19 -0.00    +0.000 C 
DOCKED: ENDROOT
DOCKED: BRANCH   1   2
DOCKED: ATOM      2  C   UNL     1      36.632  17.867 120.915 -0.13 -0.00    +0.000 A 
DOCKED: ATOM      3  C   UNL     1      35.467  17.629 120.172 -0.18 -0.00    +0.000 A 
DOCKED: ATOM      4  C   UNL     1      35.547  17.250 118.829 -0.13 -0.00    +0.000 A 
DOCKED: ATOM      5  C   UNL     1      36.797  17.091 118.215 -0.09 -0.00    +0.000 A 
DOCKED: ATOM      6  C   UNL     1      36.887  16.710 116.867 -0.08 -0.00    +0.000 A 
DOCKED: ATOM      7  C   UNL     1      38.142  16.547 116.259 -0.08 -0.00    +0.000 A 
DOCKED: ATOM      8  C   UNL     1      39.309  16.772 117.006 -0.09 -0.00    +0.000 A 
DOCKED: ATOM      9  C   UNL     1      39.228  17.150 118.348 -0.06 -0.00    +0.000 A 
DOCKED: ATOM     10  C   UNL     1      37.978  17.313 118.962 -0.06 -0.00    +0.000 A 
DOCKED: ATOM     11  C   UNL     1      37.887  17.694 120.310 -0.07 -0.00    +0.000 A 
DOCKED: ATOM     12  CM  UNL     1      36.718  17.474 119.567 +0.00 -0.00    +0.000 AC
DOCKED: ATOM     13  CM  UNL     1      38.057  16.930 117.610 +0.00 -0.00    +0.000 AC
DOCKED: BRANCH   7  12
DOCKED: ATOM     14  C   UNL     1      38.247  16.157 114.807 -0.13 -0.00    +0.000 C 
DOCKED: BRANCH  12  13
DOCKED: ATOM     15  N   UNL     1      37.789  14.764 114.621 -0.22 -0.00    +0.000 N 
DOCKED: ATOM     16  H   UNL     1      38.345  14.344 113.877 -0.01 -0.00    +0.000 HD
DOCKED: BRANCH  13  15
DOCKED: ATOM     17  C   UNL     1      36.385  14.714 114.149 -0.21 -0.00    +0.000 C 
DOCKED: ATOM     18  C   UNL     1      35.539  13.745 114.974 -0.26 -0.00    +0.000 C 
DOCKED: ENDBRANCH  13  15
DOCKED: BRANCH  13  17
DOCKED: ATOM     19  C   UNL     1      38.058  13.923 115.815 -0.41 -0.00    +0.000 C 
DOCKED: ATOM     20  C   UNL     1      38.951  12.705 115.541 -0.59 -0.00    +0.000 C 
DOCKED: ENDBRANCH  13  17
DOCKED: ENDBRANCH  12  13
DOCKED: ENDBRANCH   7  12
DOCKED: ENDBRANCH   1   2
DOCKED: BRANCH   1  19
DOCKED: ATOM     21  O   UNL     1      37.231  17.262 123.143 -0.22 -0.00    +0.000 OA
DOCKED: BRANCH  19  21
DOCKED: ATOM     22  O   UNL     1      38.454  15.623 122.073 -0.28 -0.00    +0.000 OA
DOCKED: ATOM     23  C   UNL     1      37.414  15.945 122.712 -0.31 -0.00    +0.000 C 
DOCKED: ATOM     24  N   UNL     1      36.386  14.979 122.969 -0.40 -0.00    +0.000 N 
DOCKED: ATOM     25  H   UNL     1      35.528  15.304 123.327 -0.02 -0.00    +0.000 HD
DOCKED: BRANCH  22  24
DOCKED: ATOM     26  C   UNL     1      36.524  13.567 122.738 -0.44 -0.00    +0.000 A 
DOCKED: ATOM     27  C   UNL     1      35.960  12.663 123.650 -0.55 -0.00    +0.000 A 
DOCKED: ATOM     28  C   UNL     1      36.098  11.286 123.461 -0.62 -0.00    +0.000 A 
DOCKED: ATOM     29  C   UNL     1      36.810  10.782 122.359 -0.55 -0.00    +0.000 A 
DOCKED: ATOM     30  C   UNL     1      37.404  11.690 121.464 -0.36 -0.00    +0.000 A 
DOCKED: ATOM     31  C   UNL     1      37.266  13.068 121.653 -0.44 -0.00    +0.000 A 
DOCKED: ATOM     32  CM  UNL     1      36.677  12.176 122.554 +0.00 -0.00    +0.000 AC
DOCKED: BRANCH  27  30
DOCKED: ATOM     33  C   UNL     1      36.951   9.317 122.173 -0.66 -0.00    +0.000 C 
DOCKED: ATOM     34  N   UNL     1      37.053   8.429 123.293 -0.70 -0.00    +0.000 N 
DOCKED: ATOM     35  O   UNL     1      36.997   8.840 121.007 -2.69 -0.00    +0.000 OA
DOCKED: ATOM     36  H   UNL     1      37.104   8.794 124.206 -0.53 -0.00    +0.000 HD
DOCKED: BRANCH  31  34
DOCKED: ATOM     37  O   UNL     1      37.079   7.088 123.101 -1.90 -0.00    +0.000 OA
DOCKED: ATOM     38  H   UNL     1      37.356   6.897 122.192 -0.25 -0.00    +0.000 HD
DOCKED: ENDBRANCH  31  34
DOCKED: ENDBRANCH  27  30
DOCKED: ENDBRANCH  22  24
DOCKED: ENDBRANCH  19  21
DOCKED: ENDBRANCH   1  19
DOCKED: TORSDOF 10DOCKED: TER
DOCKED: ENDMDL
________________________________________________________________________________


	BEGINNING GENETIC ALGORITHM DOCKING 20 of 100
Run: 20 Seed: 1865366277 874458197 [ Run 20 of 100 GA/GALS ]
Beginning LAMARCKIAN GENETIC ALGORITHM (LGA), with a maximum of 2500000 energy evaluations.

Final-Value: -15.905


	FINAL GENETIC ALGORITHM DOCKED STATE
	_______________________________________________


Detailed state:  trans 36.976 17.110 123.375 quatxyzw 0.190085 0.482349 0.854411 0.034494 center 1.858 0.218 -0.021 ntor 10 123.7021 -179.0395 -2.3132 -70.6184 -175.3170 -20.3431 -36.0144 -44.2853 179.6093 -0.5544
State:	 36.976  17.110 123.375   0.190  0.483  0.855 176.046    123.70 -179.04   -2.31  -70.62 -175.32  -20.34  -36.01  -44.29  179.61   -0.55

DOCKED: MODEL       20
DOCKED: USER    Run = 20
DOCKED: USER    DPF = ligand_dock.biased.dpf
DOCKED: USER  
DOCKED: USER    Estimated Free Energy of Binding    =  -10.97 kcal/mol  [=(1)+(2)+(3)-(4)]
DOCKED: USER    Estimated Inhibition Constant, Ki   =    9.13 nM (nanomolar)  [Temperature = 298.15 K]
DOCKED: USER    
DOCKED: USER    (1) Final Intermolecular Energy     =  -13.95 kcal/mol
DOCKED: USER        vdW + Hbond + desolv Energy     =  -13.95 kcal/mol
DOCKED: USER        Electrostatic Energy            =   +0.00 kcal/mol
DOCKED: USER    (2) Final Total Internal Energy     =   -1.95 kcal/mol
DOCKED: USER    (3) Torsional Free Energy           =   +2.98 kcal/mol
DOCKED: USER    (4) Unbound System's Energy  [=(2)] =   -1.95 kcal/mol
DOCKED: USER    
DOCKED: USER    
DOCKED: USER    NEWDPF move ligand.dum.pdbqt
DOCKED: USER    NEWDPF about 1.858000 0.218000 -0.021000
DOCKED: USER    NEWDPF tran0 36.975898 17.110440 123.374912
DOCKED: USER    NEWDPF quaternion0 0.190085 0.482349 0.854411 0.034494
DOCKED: USER    NEWDPF axisangle0 0.190198 0.482636 0.854919 176.046450
DOCKED: USER    NEWDPF quat0 0.190198 0.482636 0.854919 176.046450
DOCKED: USER    NEWDPF dihe0 123.70 -179.04 -2.31 -70.62 -175.32 -20.34 -36.01 -44.29 179.61 -0.55 
DOCKED: USER  keepresnum = 1 
DOCKED: USER  
DOCKED: REMARK  Name = 
DOCKED: REMARK  12 active torsions:
DOCKED: REMARK  status: ('A' for Active; 'I' for Inactive)
DOCKED: REMARK    1  A    between atoms: C_2  and  O_3
DOCKED: REMARK    2  A    between atoms: O_3  and  C_4
DOCKED: REMARK    3  A    between atoms: C_4  and  C_5
DOCKED: REMARK    4  A    between atoms: C_10  and  C_11
DOCKED: REMARK    5  A    between atoms: C_11  and  N_12
DOCKED: REMARK    6  A    between atoms: N_12  and  C_13
DOCKED: REMARK    7  A    between atoms: N_12  and  C_15
DOCKED: REMARK    8  A    between atoms: C_13  and  C_14
DOCKED: REMARK    9  A    between atoms: C_15  and  C_16
DOCKED: REMARK   10  A    between atoms: N_21  and  C_22
DOCKED: REMARK   11  A    between atoms: C_25  and  C_26
DOCKED: REMARK   12  A    between atoms: N_27  and  O_28
DOCKED: REMARK                            x       y       z     vdW  Elec       q    Type
DOCKED: REMARK                         _______ _______ _______ _____ _____    ______ ____
DOCKED: USER                              x       y       z     vdW  Elec       q    Type
DOCKED: USER                           _______ _______ _______ _____ _____    ______ ____
DOCKED: ROOT
DOCKED: ATOM      1  C   UNL     1      37.399  18.697 123.479 -0.15 -0.00    +0.000 C 
DOCKED: ENDROOT
DOCKED: BRANCH   1   2
DOCKED: ATOM      2  C   UNL     1      38.519  18.142 122.648 -0.11 -0.00    +0.000 A 
DOCKED: ATOM      3  C   UNL     1      38.507  18.296 121.253 -0.05 -0.00    +0.000 A 
DOCKED: ATOM      4  C   UNL     1      39.529  17.751 120.471 -0.05 -0.00    +0.000 A 
DOCKED: ATOM      5  C   UNL     1      40.571  17.032 121.074 -0.12 -0.00    +0.000 A 
DOCKED: ATOM      6  C   UNL     1      41.600  16.479 120.296 -0.15 -0.00    +0.000 A 
DOCKED: ATOM      7  C   UNL     1      42.638  15.756 120.905 -0.21 -0.00    +0.000 A 
DOCKED: ATOM      8  C   UNL     1      42.643  15.589 122.298 -0.36 -0.00    +0.000 A 
DOCKED: ATOM      9  C   UNL     1      41.621  16.135 123.079 -0.39 -0.00    +0.000 A 
DOCKED: ATOM     10  C   UNL     1      40.581  16.858 122.478 -0.23 -0.00    +0.000 A 
DOCKED: ATOM     11  C   UNL     1      39.551  17.410 123.255 -0.21 -0.00    +0.000 A 
DOCKED: ATOM     12  CM  UNL     1      39.543  17.582 121.864 +0.00 -0.00    +0.000 AC
DOCKED: ATOM     13  CM  UNL     1      41.609  16.308 121.689 +0.00 -0.00    +0.000 AC
DOCKED: BRANCH   7  12
DOCKED: ATOM     14  C   UNL     1      43.757  15.176 120.079 -0.13 -0.00    +0.000 C 
DOCKED: BRANCH  12  13
DOCKED: ATOM     15  N   UNL     1      44.870  16.145 119.979 -0.22 -0.00    +0.000 N 
DOCKED: ATOM     16  H   UNL     1      44.471  17.081 119.934 +0.01 -0.00    +0.000 HD
DOCKED: BRANCH  13  15
DOCKED: ATOM     17  C   UNL     1      45.627  15.971 118.717 -0.24 -0.00    +0.000 C 
DOCKED: ATOM     18  C   UNL     1      46.436  14.674 118.711 -0.38 +0.00    +0.000 C 
DOCKED: ENDBRANCH  13  15
DOCKED: BRANCH  13  17
DOCKED: ATOM     19  C   UNL     1      45.716  16.151 121.199 -0.26 +0.00    +0.000 C 
DOCKED: ATOM     20  C   UNL     1      45.630  17.446 122.020 -0.27 -0.00    +0.000 C 
DOCKED: ENDBRANCH  13  17
DOCKED: ENDBRANCH  12  13
DOCKED: ENDBRANCH   7  12
DOCKED: ENDBRANCH   1   2
DOCKED: BRANCH   1  19
DOCKED: ATOM     21  O   UNL     1      36.378  17.713 123.606 -0.24 -0.00    +0.000 OA
DOCKED: BRANCH  19  21
DOCKED: ATOM     22  O   UNL     1      36.848  16.336 121.815 -0.23 -0.00    +0.000 OA
DOCKED: ATOM     23  C   UNL     1      36.468  16.451 123.014 -0.32 -0.00    +0.000 C 
DOCKED: ATOM     24  N   UNL     1      36.082  15.296 123.770 -0.44 -0.00    +0.000 N 
DOCKED: ATOM     25  H   UNL     1      35.645  15.442 124.641 -0.04 -0.00    +0.000 HD
DOCKED: BRANCH  22  24
DOCKED: ATOM     26  C   UNL     1      36.292  13.939 123.344 -0.48 -0.00    +0.000 A 
DOCKED: ATOM     27  C   UNL     1      35.941  12.888 124.202 -0.31 -0.00    +0.000 A 
DOCKED: ATOM     28  C   UNL     1      36.154  11.560 123.822 -0.60 -0.00    +0.000 A 
DOCKED: ATOM     29  C   UNL     1      36.731  11.256 122.577 -0.58 -0.00    +0.000 A 
DOCKED: ATOM     30  C   UNL     1      37.115  12.313 121.732 -0.49 -0.00    +0.000 A 
DOCKED: ATOM     31  C   UNL     1      36.901  13.641 122.113 -0.38 -0.00    +0.000 A 
DOCKED: ATOM     32  CM  UNL     1      36.522  12.599 122.965 +0.00 -0.00    +0.000 AC
DOCKED: BRANCH  27  30
DOCKED: ATOM     33  C   UNL     1      36.955   9.842 122.188 -0.61 -0.00    +0.000 C 
DOCKED: ATOM     34  N   UNL     1      36.961   8.792 123.162 -0.68 -0.00    +0.000 N 
DOCKED: ATOM     35  O   UNL     1      37.159   9.555 120.977 -2.38 -0.00    +0.000 OA
DOCKED: ATOM     36  H   UNL     1      36.888   9.010 124.120 -0.49 -0.00    +0.000 HD
DOCKED: BRANCH  31  34
DOCKED: ATOM     37  O   UNL     1      37.066   7.498 122.772 -2.06 -0.00    +0.000 OA
DOCKED: ATOM     38  H   UNL     1      37.091   7.454 121.804 -0.07 -0.00    +0.000 HD
DOCKED: ENDBRANCH  31  34
DOCKED: ENDBRANCH  27  30
DOCKED: ENDBRANCH  22  24
DOCKED: ENDBRANCH  19  21
DOCKED: ENDBRANCH   1  19
DOCKED: TORSDOF 10DOCKED: TER
DOCKED: ENDMDL
________________________________________________________________________________


	BEGINNING GENETIC ALGORITHM DOCKING 21 of 100
Run: 21 Seed: 2115573716 1396924132 [ Run 21 of 100 GA/GALS ]
Beginning LAMARCKIAN GENETIC ALGORITHM (LGA), with a maximum of 2500000 energy evaluations.

Final-Value: -15.885


	FINAL GENETIC ALGORITHM DOCKED STATE
	_______________________________________________


Detailed state:  trans 37.483 14.356 121.066 quatxyzw -0.867922 -0.074698 -0.483540 0.085559 center 1.858 0.218 -0.021 ntor 10 -115.4907 133.9184 6.2885 141.6451 -127.6982 -98.5782 -180.0000 164.8065 -106.4853 167.4558
State:	 37.483  14.356 121.066  -0.871 -0.075 -0.485 170.184   -115.49  133.92    6.29  141.65 -127.70  -98.58 -180.00  164.81 -106.49  167.46

DOCKED: MODEL       21
DOCKED: USER    Run = 21
DOCKED: USER    DPF = ligand_dock.biased.dpf
DOCKED: USER  
DOCKED: USER    Estimated Free Energy of Binding    =  -11.31 kcal/mol  [=(1)+(2)+(3)-(4)]
DOCKED: USER    Estimated Inhibition Constant, Ki   =    5.15 nM (nanomolar)  [Temperature = 298.15 K]
DOCKED: USER    
DOCKED: USER    (1) Final Intermolecular Energy     =  -14.29 kcal/mol
DOCKED: USER        vdW + Hbond + desolv Energy     =  -14.29 kcal/mol
DOCKED: USER        Electrostatic Energy            =   +0.00 kcal/mol
DOCKED: USER    (2) Final Total Internal Energy     =   -1.60 kcal/mol
DOCKED: USER    (3) Torsional Free Energy           =   +2.98 kcal/mol
DOCKED: USER    (4) Unbound System's Energy  [=(2)] =   -1.60 kcal/mol
DOCKED: USER    
DOCKED: USER    
DOCKED: USER    NEWDPF move ligand.dum.pdbqt
DOCKED: USER    NEWDPF about 1.858000 0.218000 -0.021000
DOCKED: USER    NEWDPF tran0 37.482718 14.356124 121.065843
DOCKED: USER    NEWDPF quaternion0 -0.867922 -0.074698 -0.483540 0.085559
DOCKED: USER    NEWDPF axisangle0 -0.871117 -0.074973 -0.485320 170.183623
DOCKED: USER    NEWDPF quat0 -0.871117 -0.074973 -0.485320 170.183623
DOCKED: USER    NEWDPF dihe0 -115.49 133.92 6.29 141.65 -127.70 -98.58 -180.00 164.81 -106.49 167.46 
DOCKED: USER  keepresnum = 1 
DOCKED: USER  
DOCKED: REMARK  Name = 
DOCKED: REMARK  12 active torsions:
DOCKED: REMARK  status: ('A' for Active; 'I' for Inactive)
DOCKED: REMARK    1  A    between atoms: C_2  and  O_3
DOCKED: REMARK    2  A    between atoms: O_3  and  C_4
DOCKED: REMARK    3  A    between atoms: C_4  and  C_5
DOCKED: REMARK    4  A    between atoms: C_10  and  C_11
DOCKED: REMARK    5  A    between atoms: C_11  and  N_12
DOCKED: REMARK    6  A    between atoms: N_12  and  C_13
DOCKED: REMARK    7  A    between atoms: N_12  and  C_15
DOCKED: REMARK    8  A    between atoms: C_13  and  C_14
DOCKED: REMARK    9  A    between atoms: C_15  and  C_16
DOCKED: REMARK   10  A    between atoms: N_21  and  C_22
DOCKED: REMARK   11  A    between atoms: C_25  and  C_26
DOCKED: REMARK   12  A    between atoms: N_27  and  O_28
DOCKED: REMARK                            x       y       z     vdW  Elec       q    Type
DOCKED: REMARK                         _______ _______ _______ _____ _____    ______ ____
DOCKED: USER                              x       y       z     vdW  Elec       q    Type
DOCKED: USER                           _______ _______ _______ _____ _____    ______ ____
DOCKED: ROOT
DOCKED: ATOM      1  C   UNL     1      38.648  14.849 120.014 -0.25 -0.00    +0.000 C 
DOCKED: ENDROOT
DOCKED: BRANCH   1   2
DOCKED: ATOM      2  C   UNL     1      37.467  14.695 119.101 -0.25 -0.00    +0.000 A 
DOCKED: ATOM      3  C   UNL     1      37.246  13.483 118.430 -0.37 -0.00    +0.000 A 
DOCKED: ATOM      4  C   UNL     1      36.169  13.345 117.552 -0.18 -0.00    +0.000 A 
DOCKED: ATOM      5  C   UNL     1      35.304  14.425 117.321 -0.30 -0.00    +0.000 A 
DOCKED: ATOM      6  C   UNL     1      34.220  14.295 116.439 -0.30 -0.00    +0.000 A 
DOCKED: ATOM      7  C   UNL     1      33.361  15.381 116.208 -0.21 -0.00    +0.000 A 
DOCKED: ATOM      8  C   UNL     1      33.590  16.599 116.868 -0.14 -0.00    +0.000 A 
DOCKED: ATOM      9  C   UNL     1      34.667  16.736 117.746 -0.09 -0.00    +0.000 A 
DOCKED: ATOM     10  C   UNL     1      35.530  15.656 117.981 -0.12 -0.00    +0.000 A 
DOCKED: ATOM     11  C   UNL     1      36.614  15.784 118.862 -0.17 -0.00    +0.000 A 
DOCKED: ATOM     12  CM  UNL     1      36.389  14.565 118.208 +0.00 -0.00    +0.000 AC
DOCKED: ATOM     13  CM  UNL     1      34.446  15.516 117.094 +0.00 -0.00    +0.000 AC
DOCKED: BRANCH   7  12
DOCKED: ATOM     14  C   UNL     1      32.184  15.245 115.277 -0.24 -0.00    +0.000 C 
DOCKED: BRANCH  12  13
DOCKED: ATOM     15  N   UNL     1      31.948  13.821 114.961 -0.30 -0.00    +0.000 N 
DOCKED: ATOM     16  H   UNL     1      31.116  13.760 114.375 -0.55 -0.00    +0.000 HD
DOCKED: BRANCH  13  15
DOCKED: ATOM     17  C   UNL     1      31.636  13.040 116.181 -0.50 -0.00    +0.000 C 
DOCKED: ATOM     18  C   UNL     1      30.528  13.691 117.007 -0.47 +0.00    +0.000 C 
DOCKED: ENDBRANCH  13  15
DOCKED: BRANCH  13  17
DOCKED: ATOM     19  C   UNL     1      33.038  13.245 114.133 -0.37 -0.00    +0.000 C 
DOCKED: ATOM     20  C   UNL     1      32.643  11.976 113.364 -0.49 -0.00    +0.000 C 
DOCKED: ENDBRANCH  13  17
DOCKED: ENDBRANCH  12  13
DOCKED: ENDBRANCH   7  12
DOCKED: ENDBRANCH   1   2
DOCKED: BRANCH   1  19
DOCKED: ATOM     21  O   UNL     1      38.213  14.745 121.366 -0.32 -0.00    +0.000 OA
DOCKED: BRANCH  19  21
DOCKED: ATOM     22  O   UNL     1      37.755  13.423 123.201 -0.58 -0.00    +0.000 OA
DOCKED: ATOM     23  C   UNL     1      37.837  13.530 121.946 -0.48 -0.00    +0.000 C 
DOCKED: ATOM     24  N   UNL     1      37.588  12.401 121.099 -0.48 -0.00    +0.000 N 
DOCKED: ATOM     25  H   UNL     1      37.815  12.483 120.144 -0.05 -0.00    +0.000 HD
DOCKED: BRANCH  22  24
DOCKED: ATOM     26  C   UNL     1      37.030  11.155 121.550 -0.45 -0.00    +0.000 A 
DOCKED: ATOM     27  C   UNL     1      36.102  11.158 122.601 -0.60 -0.00    +0.000 A 
DOCKED: ATOM     28  C   UNL     1      35.560   9.960 123.073 -0.57 -0.00    +0.000 A 
DOCKED: ATOM     29  C   UNL     1      35.942   8.731 122.509 -0.64 -0.00    +0.000 A 
DOCKED: ATOM     30  C   UNL     1      36.899   8.726 121.478 -0.56 -0.00    +0.000 A 
DOCKED: ATOM     31  C   UNL     1      37.441   9.926 121.006 -0.10 -0.00    +0.000 A 
DOCKED: ATOM     32  CM  UNL     1      36.495   9.943 122.036 +0.00 -0.00    +0.000 AC
DOCKED: BRANCH  27  30
DOCKED: ATOM     33  C   UNL     1      35.361   7.466 123.023 -0.74 -0.00    +0.000 C 
DOCKED: ATOM     34  N   UNL     1      34.045   7.424 123.587 -0.67 -0.00    +0.000 N 
DOCKED: ATOM     35  O   UNL     1      36.042   6.406 122.978 -1.07 -0.00    +0.000 OA
DOCKED: ATOM     36  H   UNL     1      33.535   8.258 123.706 -0.24 -0.00    +0.000 HD
DOCKED: BRANCH  31  34
DOCKED: ATOM     37  O   UNL     1      33.497   6.241 123.957 -0.87 -0.00    +0.000 OA
DOCKED: ATOM     38  H   UNL     1      34.158   5.537 123.867 -0.56 -0.00    +0.000 HD
DOCKED: ENDBRANCH  31  34
DOCKED: ENDBRANCH  27  30
DOCKED: ENDBRANCH  22  24
DOCKED: ENDBRANCH  19  21
DOCKED: ENDBRANCH   1  19
DOCKED: TORSDOF 10DOCKED: TER
DOCKED: ENDMDL
________________________________________________________________________________


	BEGINNING GENETIC ALGORITHM DOCKING 22 of 100
Run: 22 Seed: 2106182110 2023789796 [ Run 22 of 100 GA/GALS ]
Beginning LAMARCKIAN GENETIC ALGORITHM (LGA), with a maximum of 2500000 energy evaluations.

Final-Value: -17.672


	FINAL GENETIC ALGORITHM DOCKED STATE
	_______________________________________________


Detailed state:  trans 36.184 17.260 123.263 quatxyzw -0.834450 0.166459 0.479011 -0.215716 center 1.858 0.218 -0.021 ntor 10 78.1307 158.7155 4.7572 149.6149 15.6769 -8.1514 -116.5875 16.0966 -113.4327 6.4268
State:	 36.184  17.260 123.263  -0.855  0.170  0.491 -155.085     78.13  158.72    4.76  149.61   15.68   -8.15 -116.59   16.10 -113.43    6.43

DOCKED: MODEL       22
DOCKED: USER    Run = 22
DOCKED: USER    DPF = ligand_dock.biased.dpf
DOCKED: USER  
DOCKED: USER    Estimated Free Energy of Binding    =  -12.56 kcal/mol  [=(1)+(2)+(3)-(4)]
DOCKED: USER    Estimated Inhibition Constant, Ki   =  616.57 pM (picomolar)  [Temperature = 298.15 K]
DOCKED: USER    
DOCKED: USER    (1) Final Intermolecular Energy     =  -15.55 kcal/mol
DOCKED: USER        vdW + Hbond + desolv Energy     =  -15.55 kcal/mol
DOCKED: USER        Electrostatic Energy            =   +0.00 kcal/mol
DOCKED: USER    (2) Final Total Internal Energy     =   -2.12 kcal/mol
DOCKED: USER    (3) Torsional Free Energy           =   +2.98 kcal/mol
DOCKED: USER    (4) Unbound System's Energy  [=(2)] =   -2.12 kcal/mol
DOCKED: USER    
DOCKED: USER    
DOCKED: USER    NEWDPF move ligand.dum.pdbqt
DOCKED: USER    NEWDPF about 1.858000 0.218000 -0.021000
DOCKED: USER    NEWDPF tran0 36.184255 17.260247 123.263462
DOCKED: USER    NEWDPF quaternion0 -0.834450 0.166459 0.479011 -0.215716
DOCKED: USER    NEWDPF axisangle0 -0.854570 0.170473 0.490560 -155.084980
DOCKED: USER    NEWDPF quat0 -0.854570 0.170473 0.490560 -155.084980
DOCKED: USER    NEWDPF dihe0 78.13 158.72 4.76 149.61 15.68 -8.15 -116.59 16.10 -113.43 6.43 
DOCKED: USER  keepresnum = 1 
DOCKED: USER  
DOCKED: REMARK  Name = 
DOCKED: REMARK  12 active torsions:
DOCKED: REMARK  status: ('A' for Active; 'I' for Inactive)
DOCKED: REMARK    1  A    between atoms: C_2  and  O_3
DOCKED: REMARK    2  A    between atoms: O_3  and  C_4
DOCKED: REMARK    3  A    between atoms: C_4  and  C_5
DOCKED: REMARK    4  A    between atoms: C_10  and  C_11
DOCKED: REMARK    5  A    between atoms: C_11  and  N_12
DOCKED: REMARK    6  A    between atoms: N_12  and  C_13
DOCKED: REMARK    7  A    between atoms: N_12  and  C_15
DOCKED: REMARK    8  A    between atoms: C_13  and  C_14
DOCKED: REMARK    9  A    between atoms: C_15  and  C_16
DOCKED: REMARK   10  A    between atoms: N_21  and  C_22
DOCKED: REMARK   11  A    between atoms: C_25  and  C_26
DOCKED: REMARK   12  A    between atoms: N_27  and  O_28
DOCKED: REMARK                            x       y       z     vdW  Elec       q    Type
DOCKED: REMARK                         _______ _______ _______ _____ _____    ______ ____
DOCKED: USER                              x       y       z     vdW  Elec       q    Type
DOCKED: USER                           _______ _______ _______ _____ _____    ______ ____
DOCKED: ROOT
DOCKED: ATOM      1  C   UNL     1      35.335  18.611 122.860 -0.25 -0.00    +0.000 C 
DOCKED: ENDROOT
DOCKED: BRANCH   1   2
DOCKED: ATOM      2  C   UNL     1      35.086  18.531 124.338 -0.26 -0.00    +0.000 A 
DOCKED: ATOM      3  C   UNL     1      35.717  19.430 125.211 -0.18 -0.00    +0.000 A 
DOCKED: ATOM      4  C   UNL     1      35.517  19.338 126.590 -0.15 -0.00    +0.000 A 
DOCKED: ATOM      5  C   UNL     1      34.691  18.334 127.117 -0.19 -0.00    +0.000 A 
DOCKED: ATOM      6  C   UNL     1      34.485  18.233 128.502 -0.15 -0.00    +0.000 A 
DOCKED: ATOM      7  C   UNL     1      33.661  17.223 129.025 -0.25 -0.00    +0.000 A 
DOCKED: ATOM      8  C   UNL     1      33.041  16.315 128.153 -0.37 -0.00    +0.000 A 
DOCKED: ATOM      9  C   UNL     1      33.242  16.408 126.774 -0.28 -0.00    +0.000 A 
DOCKED: ATOM     10  C   UNL     1      34.064  17.413 126.245 -0.34 -0.00    +0.000 A 
DOCKED: ATOM     11  C   UNL     1      34.271  17.514 124.861 -0.38 -0.00    +0.000 A 
DOCKED: ATOM     12  CM  UNL     1      34.891  18.426 125.727 -0.26 -0.00    +0.000 AC
DOCKED: ATOM     13  CM  UNL     1      33.864  17.321 127.636 +0.00 -0.00    +0.000 AC
DOCKED: BRANCH   7  12
DOCKED: ATOM     14  C   UNL     1      33.420  17.119 130.508 -0.24 -0.00    +0.000 C 
DOCKED: BRANCH  12  13
DOCKED: ATOM     15  N   UNL     1      32.080  17.647 130.843 -0.23 -0.00    +0.000 N 
DOCKED: ATOM     16  H   UNL     1      31.980  17.636 131.857 -0.25 -0.00    +0.000 HD
DOCKED: BRANCH  13  15
DOCKED: ATOM     17  C   UNL     1      31.006  16.766 130.326 -0.38 -0.00    +0.000 C 
DOCKED: ATOM     18  C   UNL     1      30.156  17.464 129.266 -0.43 -0.00    +0.000 C 
DOCKED: ENDBRANCH  13  15
DOCKED: BRANCH  13  17
DOCKED: ATOM     19  C   UNL     1      31.931  19.074 130.462 -0.14 -0.00    +0.000 C 
DOCKED: ATOM     20  C   UNL     1      31.281  19.951 131.542 -0.13 -0.00    +0.000 C 
DOCKED: ENDBRANCH  13  17
DOCKED: ENDBRANCH  12  13
DOCKED: ENDBRANCH   7  12
DOCKED: ENDBRANCH   1   2
DOCKED: BRANCH   1  19
DOCKED: ATOM     21  O   UNL     1      36.346  17.673 122.504 -0.21 -0.00    +0.000 OA
DOCKED: BRANCH  19  21
DOCKED: ATOM     22  O   UNL     1      34.999  15.814 122.728 -0.35 -0.00    +0.000 OA
DOCKED: ATOM     23  C   UNL     1      36.160  16.292 122.595 -0.32 -0.00    +0.000 C 
DOCKED: ATOM     24  N   UNL     1      37.306  15.431 122.577 -0.31 -0.00    +0.000 N 
DOCKED: ATOM     25  H   UNL     1      38.196  15.849 122.631 -0.00 -0.00    +0.000 HD
DOCKED: BRANCH  22  24
DOCKED: ATOM     26  C   UNL     1      37.244  13.998 122.487 -0.43 -0.00    +0.000 A 
DOCKED: ATOM     27  C   UNL     1      37.376  13.382 121.235 -0.41 -0.00    +0.000 A 
DOCKED: ATOM     28  C   UNL     1      37.298  11.992 121.115 -0.46 -0.00    +0.000 A 
DOCKED: ATOM     29  C   UNL     1      37.076  11.188 122.247 -0.48 -0.00    +0.000 A 
DOCKED: ATOM     30  C   UNL     1      36.908  11.809 123.497 -0.61 -0.00    +0.000 A 
DOCKED: ATOM     31  C   UNL     1      36.987  13.200 123.616 -0.45 -0.00    +0.000 A 
DOCKED: ATOM     32  CM  UNL     1      37.148  12.595 122.366 +0.00 -0.00    +0.000 AC
DOCKED: BRANCH  27  30
DOCKED: ATOM     33  C   UNL     1      36.991   9.714 122.104 -0.61 -0.00    +0.000 C 
DOCKED: ATOM     34  N   UNL     1      36.914   8.856 123.249 -0.65 -0.00    +0.000 N 
DOCKED: ATOM     35  O   UNL     1      37.001   9.199 120.953 -2.71 -0.00    +0.000 OA
DOCKED: ATOM     36  H   UNL     1      36.992   9.237 124.153 -0.55 -0.00    +0.000 HD
DOCKED: BRANCH  31  34
DOCKED: ATOM     37  O   UNL     1      36.735   7.522 123.092 -2.11 -0.00    +0.000 OA
DOCKED: ATOM     38  H   UNL     1      36.754   7.302 122.148 -0.05 -0.00    +0.000 HD
DOCKED: ENDBRANCH  31  34
DOCKED: ENDBRANCH  27  30
DOCKED: ENDBRANCH  22  24
DOCKED: ENDBRANCH  19  21
DOCKED: ENDBRANCH   1  19
DOCKED: TORSDOF 10DOCKED: TER
DOCKED: ENDMDL
________________________________________________________________________________


	BEGINNING GENETIC ALGORITHM DOCKING 23 of 100
Run: 23 Seed: 1867927542 1149078867 [ Run 23 of 100 GA/GALS ]
Beginning LAMARCKIAN GENETIC ALGORITHM (LGA), with a maximum of 2500000 energy evaluations.

Final-Value: -17.384


	FINAL GENETIC ALGORITHM DOCKED STATE
	_______________________________________________


Detailed state:  trans 36.392 17.118 122.293 quatxyzw -0.772807 -0.154768 -0.496548 -0.363669 center 1.858 0.218 -0.021 ntor 10 152.0173 -180.0000 17.8631 -6.9185 -171.7568 37.8792 -50.7009 19.3125 -127.8572 145.1558
State:	 36.392  17.118 122.293  -0.830 -0.166 -0.533 -137.349    152.02 -180.00   17.86   -6.92 -171.76   37.88  -50.70   19.31 -127.86  145.16

DOCKED: MODEL       23
DOCKED: USER    Run = 23
DOCKED: USER    DPF = ligand_dock.biased.dpf
DOCKED: USER  
DOCKED: USER    Estimated Free Energy of Binding    =  -12.33 kcal/mol  [=(1)+(2)+(3)-(4)]
DOCKED: USER    Estimated Inhibition Constant, Ki   =  912.16 pM (picomolar)  [Temperature = 298.15 K]
DOCKED: USER    
DOCKED: USER    (1) Final Intermolecular Energy     =  -15.32 kcal/mol
DOCKED: USER        vdW + Hbond + desolv Energy     =  -15.32 kcal/mol
DOCKED: USER        Electrostatic Energy            =   +0.00 kcal/mol
DOCKED: USER    (2) Final Total Internal Energy     =   -2.07 kcal/mol
DOCKED: USER    (3) Torsional Free Energy           =   +2.98 kcal/mol
DOCKED: USER    (4) Unbound System's Energy  [=(2)] =   -2.07 kcal/mol
DOCKED: USER    
DOCKED: USER    
DOCKED: USER    NEWDPF move ligand.dum.pdbqt
DOCKED: USER    NEWDPF about 1.858000 0.218000 -0.021000
DOCKED: USER    NEWDPF tran0 36.391806 17.118469 122.292670
DOCKED: USER    NEWDPF quaternion0 -0.772807 -0.154768 -0.496548 -0.363669
DOCKED: USER    NEWDPF axisangle0 -0.829612 -0.166145 -0.533047 -137.348553
DOCKED: USER    NEWDPF quat0 -0.829612 -0.166145 -0.533047 -137.348553
DOCKED: USER    NEWDPF dihe0 152.02 -180.00 17.86 -6.92 -171.76 37.88 -50.70 19.31 -127.86 145.16 
DOCKED: USER  keepresnum = 1 
DOCKED: USER  
DOCKED: REMARK  Name = 
DOCKED: REMARK  12 active torsions:
DOCKED: REMARK  status: ('A' for Active; 'I' for Inactive)
DOCKED: REMARK    1  A    between atoms: C_2  and  O_3
DOCKED: REMARK    2  A    between atoms: O_3  and  C_4
DOCKED: REMARK    3  A    between atoms: C_4  and  C_5
DOCKED: REMARK    4  A    between atoms: C_10  and  C_11
DOCKED: REMARK    5  A    between atoms: C_11  and  N_12
DOCKED: REMARK    6  A    between atoms: N_12  and  C_13
DOCKED: REMARK    7  A    between atoms: N_12  and  C_15
DOCKED: REMARK    8  A    between atoms: C_13  and  C_14
DOCKED: REMARK    9  A    between atoms: C_15  and  C_16
DOCKED: REMARK   10  A    between atoms: N_21  and  C_22
DOCKED: REMARK   11  A    between atoms: C_25  and  C_26
DOCKED: REMARK   12  A    between atoms: N_27  and  O_28
DOCKED: REMARK                            x       y       z     vdW  Elec       q    Type
DOCKED: REMARK                         _______ _______ _______ _____ _____    ______ ____
DOCKED: USER                              x       y       z     vdW  Elec       q    Type
DOCKED: USER                           _______ _______ _______ _____ _____    ______ ____
DOCKED: ROOT
DOCKED: ATOM      1  C   UNL     1      36.907  18.664 122.060 -0.15 -0.00    +0.000 C 
DOCKED: ENDROOT
DOCKED: BRANCH   1   2
DOCKED: ATOM      2  C   UNL     1      35.857  18.535 120.995 -0.19 -0.00    +0.000 A 
DOCKED: ATOM      3  C   UNL     1      36.215  18.590 119.640 -0.12 -0.00    +0.000 A 
DOCKED: ATOM      4  C   UNL     1      35.238  18.506 118.644 -0.13 -0.00    +0.000 A 
DOCKED: ATOM      5  C   UNL     1      33.886  18.380 118.993 -0.22 -0.00    +0.000 A 
DOCKED: ATOM      6  C   UNL     1      32.897  18.297 118.000 -0.18 -0.00    +0.000 A 
DOCKED: ATOM      7  C   UNL     1      31.544  18.176 118.354 -0.26 -0.00    +0.000 A 
DOCKED: ATOM      8  C   UNL     1      31.184  18.136 119.710 -0.42 -0.00    +0.000 A 
DOCKED: ATOM      9  C   UNL     1      32.162  18.219 120.705 -0.34 -0.00    +0.000 A 
DOCKED: ATOM     10  C   UNL     1      33.514  18.341 120.357 -0.31 -0.00    +0.000 A 
DOCKED: ATOM     11  C   UNL     1      34.503  18.425 121.350 -0.24 -0.00    +0.000 A 
DOCKED: ATOM     12  CM  UNL     1      34.869  18.463 119.997 +0.00 -0.00    +0.000 AC
DOCKED: ATOM     13  CM  UNL     1      32.531  18.258 119.353 +0.00 -0.00    +0.000 AC
DOCKED: BRANCH   7  12
DOCKED: ATOM     14  C   UNL     1      30.479  18.067 117.295 -0.21 -0.00    +0.000 C 
DOCKED: BRANCH  12  13
DOCKED: ATOM     15  N   UNL     1      29.348  17.254 117.792 -0.30 -0.00    +0.000 N 
DOCKED: ATOM     16  H   UNL     1      29.309  17.353 118.806 -0.05 -0.00    +0.000 HD
DOCKED: BRANCH  13  15
DOCKED: ATOM     17  C   UNL     1      29.567  15.811 117.538 -0.38 -0.00    +0.000 C 
DOCKED: ATOM     18  C   UNL     1      30.152  15.557 116.150 -0.34 -0.00    +0.000 C 
DOCKED: ENDBRANCH  13  15
DOCKED: BRANCH  13  17
DOCKED: ATOM     19  C   UNL     1      28.040  17.764 117.311 -0.28 -0.00    +0.000 C 
DOCKED: ATOM     20  C   UNL     1      27.139  18.333 118.416 -0.32 -0.00    +0.000 C 
DOCKED: ENDBRANCH  13  17
DOCKED: ENDBRANCH  12  13
DOCKED: ENDBRANCH   7  12
DOCKED: ENDBRANCH   1   2
DOCKED: BRANCH   1  19
DOCKED: ATOM     21  O   UNL     1      36.837  17.536 122.926 -0.20 -0.00    +0.000 OA
DOCKED: BRANCH  19  21
DOCKED: ATOM     22  O   UNL     1      37.273  15.967 121.291 -0.22 -0.00    +0.000 OA
DOCKED: ATOM     23  C   UNL     1      36.856  16.220 122.455 -0.28 -0.00    +0.000 C 
DOCKED: ATOM     24  N   UNL     1      36.355  15.172 123.295 -0.41 -0.00    +0.000 N 
DOCKED: ATOM     25  H   UNL     1      35.896  15.430 124.128 -0.03 -0.00    +0.000 HD
DOCKED: BRANCH  22  24
DOCKED: ATOM     26  C   UNL     1      36.479  13.770 123.004 -0.47 -0.00    +0.000 A 
DOCKED: ATOM     27  C   UNL     1      36.313  12.836 124.037 -0.43 -0.00    +0.000 A 
DOCKED: ATOM     28  C   UNL     1      36.449  11.468 123.786 -0.61 -0.00    +0.000 A 
DOCKED: ATOM     29  C   UNL     1      36.763  11.005 122.497 -0.57 -0.00    +0.000 A 
DOCKED: ATOM     30  C   UNL     1      36.965  11.945 121.469 -0.49 -0.00    +0.000 A 
DOCKED: ATOM     31  C   UNL     1      36.828  13.313 121.721 -0.35 -0.00    +0.000 A 
DOCKED: ATOM     32  CM  UNL     1      36.633  12.389 122.753 +0.00 -0.00    +0.000 AC
DOCKED: BRANCH  27  30
DOCKED: ATOM     33  C   UNL     1      36.909   9.551 122.246 -0.65 -0.00    +0.000 C 
DOCKED: ATOM     34  N   UNL     1      37.041   8.616 123.324 -0.67 -0.00    +0.000 N 
DOCKED: ATOM     35  O   UNL     1      36.933   9.124 121.060 -2.69 -0.00    +0.000 OA
DOCKED: ATOM     36  H   UNL     1      37.109   8.943 124.251 -0.55 -0.00    +0.000 HD
DOCKED: BRANCH  31  34
DOCKED: ATOM     37  O   UNL     1      37.070   7.285 123.075 -2.10 -0.00    +0.000 OA
DOCKED: ATOM     38  H   UNL     1      37.275   7.136 122.139 -0.15 -0.00    +0.000 HD
DOCKED: ENDBRANCH  31  34
DOCKED: ENDBRANCH  27  30
DOCKED: ENDBRANCH  22  24
DOCKED: ENDBRANCH  19  21
DOCKED: ENDBRANCH   1  19
DOCKED: TORSDOF 10DOCKED: TER
DOCKED: ENDMDL
________________________________________________________________________________


	BEGINNING GENETIC ALGORITHM DOCKING 24 of 100
Run: 24 Seed: 174580660 288800454 [ Run 24 of 100 GA/GALS ]
Beginning LAMARCKIAN GENETIC ALGORITHM (LGA), with a maximum of 2500000 energy evaluations.

Final-Value: -17.300


	FINAL GENETIC ALGORITHM DOCKED STATE
	_______________________________________________


Detailed state:  trans 36.228 17.079 123.366 quatxyzw -0.195253 -0.774210 -0.449164 -0.400907 center 1.858 0.218 -0.021 ntor 10 77.4504 -57.6354 23.7614 -41.5508 -178.8754 -164.8467 109.0224 -118.5573 128.8785 -173.1706
State:	 36.228  17.079 123.366  -0.213 -0.845 -0.490 -132.730     77.45  -57.64   23.76  -41.55 -178.88 -164.85  109.02 -118.56  128.88 -173.17

DOCKED: MODEL       24
DOCKED: USER    Run = 24
DOCKED: USER    DPF = ligand_dock.biased.dpf
DOCKED: USER  
DOCKED: USER    Estimated Free Energy of Binding    =  -11.65 kcal/mol  [=(1)+(2)+(3)-(4)]
DOCKED: USER    Estimated Inhibition Constant, Ki   =    2.90 nM (nanomolar)  [Temperature = 298.15 K]
DOCKED: USER    
DOCKED: USER    (1) Final Intermolecular Energy     =  -14.63 kcal/mol
DOCKED: USER        vdW + Hbond + desolv Energy     =  -14.63 kcal/mol
DOCKED: USER        Electrostatic Energy            =   +0.00 kcal/mol
DOCKED: USER    (2) Final Total Internal Energy     =   -2.67 kcal/mol
DOCKED: USER    (3) Torsional Free Energy           =   +2.98 kcal/mol
DOCKED: USER    (4) Unbound System's Energy  [=(2)] =   -2.67 kcal/mol
DOCKED: USER    
DOCKED: USER    
DOCKED: USER    NEWDPF move ligand.dum.pdbqt
DOCKED: USER    NEWDPF about 1.858000 0.218000 -0.021000
DOCKED: USER    NEWDPF tran0 36.228096 17.078562 123.365619
DOCKED: USER    NEWDPF quaternion0 -0.195253 -0.774210 -0.449164 -0.400907
DOCKED: USER    NEWDPF axisangle0 -0.213131 -0.845098 -0.490291 -132.730216
DOCKED: USER    NEWDPF quat0 -0.213131 -0.845098 -0.490291 -132.730216
DOCKED: USER    NEWDPF dihe0 77.45 -57.64 23.76 -41.55 -178.88 -164.85 109.02 -118.56 128.88 -173.17 
DOCKED: USER  keepresnum = 1 
DOCKED: USER  
DOCKED: REMARK  Name = 
DOCKED: REMARK  12 active torsions:
DOCKED: REMARK  status: ('A' for Active; 'I' for Inactive)
DOCKED: REMARK    1  A    between atoms: C_2  and  O_3
DOCKED: REMARK    2  A    between atoms: O_3  and  C_4
DOCKED: REMARK    3  A    between atoms: C_4  and  C_5
DOCKED: REMARK    4  A    between atoms: C_10  and  C_11
DOCKED: REMARK    5  A    between atoms: C_11  and  N_12
DOCKED: REMARK    6  A    between atoms: N_12  and  C_13
DOCKED: REMARK    7  A    between atoms: N_12  and  C_15
DOCKED: REMARK    8  A    between atoms: C_13  and  C_14
DOCKED: REMARK    9  A    between atoms: C_15  and  C_16
DOCKED: REMARK   10  A    between atoms: N_21  and  C_22
DOCKED: REMARK   11  A    between atoms: C_25  and  C_26
DOCKED: REMARK   12  A    between atoms: N_27  and  O_28
DOCKED: REMARK                            x       y       z     vdW  Elec       q    Type
DOCKED: REMARK                         _______ _______ _______ _____ _____    ______ ____
DOCKED: USER                              x       y       z     vdW  Elec       q    Type
DOCKED: USER                           _______ _______ _______ _____ _____    ______ ____
DOCKED: ROOT
DOCKED: ATOM      1  C   UNL     1      35.219  18.023 122.473 -0.32 -0.00    +0.000 C 
DOCKED: ENDROOT
DOCKED: BRANCH   1   2
DOCKED: ATOM      2  C   UNL     1      36.225  17.604 121.442 -0.18 -0.00    +0.000 A 
DOCKED: ATOM      3  C   UNL     1      37.518  18.149 121.455 -0.09 -0.00    +0.000 A 
DOCKED: ATOM      4  C   UNL     1      38.449  17.789 120.477 -0.05 -0.00    +0.000 A 
DOCKED: ATOM      5  C   UNL     1      38.093  16.889 119.462 -0.09 -0.00    +0.000 A 
DOCKED: ATOM      6  C   UNL     1      39.021  16.524 118.475 -0.10 -0.00    +0.000 A 
DOCKED: ATOM      7  C   UNL     1      38.657  15.626 117.458 -0.15 -0.00    +0.000 A 
DOCKED: ATOM      8  C   UNL     1      37.359  15.092 117.436 -0.20 -0.00    +0.000 A 
DOCKED: ATOM      9  C   UNL     1      36.430  15.452 118.415 -0.19 -0.00    +0.000 A 
DOCKED: ATOM     10  C   UNL     1      36.786  16.348 119.432 -0.15 -0.00    +0.000 A 
DOCKED: ATOM     11  C   UNL     1      35.859  16.715 120.420 -0.09 -0.00    +0.000 A 
DOCKED: ATOM     12  CM  UNL     1      37.155  17.249 120.448 +0.00 -0.00    +0.000 AC
DOCKED: ATOM     13  CM  UNL     1      37.724  15.989 118.446 +0.00 -0.00    +0.000 AC
DOCKED: BRANCH   7  12
DOCKED: ATOM     14  C   UNL     1      39.653  15.214 116.405 -0.27 -0.00    +0.000 C 
DOCKED: BRANCH  12  13
DOCKED: ATOM     15  N   UNL     1      40.238  16.410 115.762 -0.15 -0.00    +0.000 N 
DOCKED: ATOM     16  H   UNL     1      39.746  17.231 116.114 +0.00 -0.00    +0.000 HD
DOCKED: BRANCH  13  15
DOCKED: ATOM     17  C   UNL     1      40.009  16.403 114.298 -0.18 -0.00    +0.000 C 
DOCKED: ATOM     18  C   UNL     1      41.320  16.324 113.516 -0.18 -0.00    +0.000 C 
DOCKED: ENDBRANCH  13  15
DOCKED: BRANCH  13  17
DOCKED: ATOM     19  C   UNL     1      41.654  16.618 116.155 -0.19 -0.00    +0.000 C 
DOCKED: ATOM     20  C   UNL     1      42.267  15.454 116.947 -0.32 -0.00    +0.000 C 
DOCKED: ENDBRANCH  13  17
DOCKED: ENDBRANCH  12  13
DOCKED: ENDBRANCH   7  12
DOCKED: ENDBRANCH   1   2
DOCKED: BRANCH   1  19
DOCKED: ATOM     21  O   UNL     1      35.421  17.265 123.662 -0.33 -0.00    +0.000 OA
DOCKED: BRANCH  19  21
DOCKED: ATOM     22  O   UNL     1      34.679  15.182 124.320 -0.65 -0.00    +0.000 OA
DOCKED: ATOM     23  C   UNL     1      35.507  15.871 123.662 -0.47 -0.00    +0.000 C 
DOCKED: ATOM     24  N   UNL     1      36.573  15.238 122.941 -0.37 -0.00    +0.000 N 
DOCKED: ATOM     25  H   UNL     1      37.284  15.812 122.575 -0.00 -0.00    +0.000 HD
DOCKED: BRANCH  22  24
DOCKED: ATOM     26  C   UNL     1      36.672  13.821 122.717 -0.45 -0.00    +0.000 A 
DOCKED: ATOM     27  C   UNL     1      36.298  12.936 123.737 -0.56 -0.00    +0.000 A 
DOCKED: ATOM     28  C   UNL     1      36.405  11.555 123.553 -0.63 -0.00    +0.000 A 
DOCKED: ATOM     29  C   UNL     1      36.898  11.030 122.346 -0.53 -0.00    +0.000 A 
DOCKED: ATOM     30  C   UNL     1      37.307  11.920 121.337 -0.44 -0.00    +0.000 A 
DOCKED: ATOM     31  C   UNL     1      37.199  13.302 121.521 -0.41 -0.00    +0.000 A 
DOCKED: ATOM     32  CM  UNL     1      36.797  12.427 122.536 +0.00 -0.00    +0.000 AC
DOCKED: BRANCH  27  30
DOCKED: ATOM     33  C   UNL     1      37.010   9.562 122.167 -0.62 -0.00    +0.000 C 
DOCKED: ATOM     34  N   UNL     1      37.073   8.675 123.290 -0.67 -0.00    +0.000 N 
DOCKED: ATOM     35  O   UNL     1      37.067   9.081 121.003 -2.73 -0.00    +0.000 OA
DOCKED: ATOM     36  H   UNL     1      37.116   9.041 124.203 -0.56 -0.00    +0.000 HD
DOCKED: BRANCH  31  34
DOCKED: ATOM     37  O   UNL     1      37.073   7.333 123.102 -2.15 -0.00    +0.000 OA
DOCKED: ATOM     38  H   UNL     1      37.398   7.131 122.211 -0.18 -0.00    +0.000 HD
DOCKED: ENDBRANCH  31  34
DOCKED: ENDBRANCH  27  30
DOCKED: ENDBRANCH  22  24
DOCKED: ENDBRANCH  19  21
DOCKED: ENDBRANCH   1  19
DOCKED: TORSDOF 10DOCKED: TER
DOCKED: ENDMDL
________________________________________________________________________________


	BEGINNING GENETIC ALGORITHM DOCKING 25 of 100
Run: 25 Seed: 1402941591 1927722341 [ Run 25 of 100 GA/GALS ]
Beginning LAMARCKIAN GENETIC ALGORITHM (LGA), with a maximum of 2500000 energy evaluations.

Final-Value: -17.341


	FINAL GENETIC ALGORITHM DOCKED STATE
	_______________________________________________


Detailed state:  trans 36.039 17.395 122.274 quatxyzw -0.958350 0.028183 -0.278456 -0.056862 center 1.858 0.218 -0.021 ntor 10 92.2672 158.3773 16.9600 -166.7579 -179.9714 171.5207 167.0982 176.8829 -83.1421 -107.2183
State:	 36.039  17.395 122.274  -0.960  0.028 -0.279 -173.481     92.27  158.38   16.96 -166.76 -179.97  171.52  167.10  176.88  -83.14 -107.22

DOCKED: MODEL       25
DOCKED: USER    Run = 25
DOCKED: USER    DPF = ligand_dock.biased.dpf
DOCKED: USER  
DOCKED: USER    Estimated Free Energy of Binding    =  -12.28 kcal/mol  [=(1)+(2)+(3)-(4)]
DOCKED: USER    Estimated Inhibition Constant, Ki   =  997.91 pM (picomolar)  [Temperature = 298.15 K]
DOCKED: USER    
DOCKED: USER    (1) Final Intermolecular Energy     =  -15.26 kcal/mol
DOCKED: USER        vdW + Hbond + desolv Energy     =  -15.26 kcal/mol
DOCKED: USER        Electrostatic Energy            =   +0.00 kcal/mol
DOCKED: USER    (2) Final Total Internal Energy     =   -2.08 kcal/mol
DOCKED: USER    (3) Torsional Free Energy           =   +2.98 kcal/mol
DOCKED: USER    (4) Unbound System's Energy  [=(2)] =   -2.08 kcal/mol
DOCKED: USER    
DOCKED: USER    
DOCKED: USER    NEWDPF move ligand.dum.pdbqt
DOCKED: USER    NEWDPF about 1.858000 0.218000 -0.021000
DOCKED: USER    NEWDPF tran0 36.039088 17.394615 122.273880
DOCKED: USER    NEWDPF quaternion0 -0.958350 0.028183 -0.278456 -0.056862
DOCKED: USER    NEWDPF axisangle0 -0.959903 0.028229 -0.278908 -173.480627
DOCKED: USER    NEWDPF quat0 -0.959903 0.028229 -0.278908 -173.480627
DOCKED: USER    NEWDPF dihe0 92.27 158.38 16.96 -166.76 -179.97 171.52 167.10 176.88 -83.14 -107.22 
DOCKED: USER  keepresnum = 1 
DOCKED: USER  
DOCKED: REMARK  Name = 
DOCKED: REMARK  12 active torsions:
DOCKED: REMARK  status: ('A' for Active; 'I' for Inactive)
DOCKED: REMARK    1  A    between atoms: C_2  and  O_3
DOCKED: REMARK    2  A    between atoms: O_3  and  C_4
DOCKED: REMARK    3  A    between atoms: C_4  and  C_5
DOCKED: REMARK    4  A    between atoms: C_10  and  C_11
DOCKED: REMARK    5  A    between atoms: C_11  and  N_12
DOCKED: REMARK    6  A    between atoms: N_12  and  C_13
DOCKED: REMARK    7  A    between atoms: N_12  and  C_15
DOCKED: REMARK    8  A    between atoms: C_13  and  C_14
DOCKED: REMARK    9  A    between atoms: C_15  and  C_16
DOCKED: REMARK   10  A    between atoms: N_21  and  C_22
DOCKED: REMARK   11  A    between atoms: C_25  and  C_26
DOCKED: REMARK   12  A    between atoms: N_27  and  O_28
DOCKED: REMARK                            x       y       z     vdW  Elec       q    Type
DOCKED: REMARK                         _______ _______ _______ _____ _____    ______ ____
DOCKED: USER                              x       y       z     vdW  Elec       q    Type
DOCKED: USER                           _______ _______ _______ _____ _____    ______ ____
DOCKED: ROOT
DOCKED: ATOM      1  C   UNL     1      36.727  18.201 121.015 -0.15 -0.00    +0.000 C 
DOCKED: ENDROOT
DOCKED: BRANCH   1   2
DOCKED: ATOM      2  C   UNL     1      35.266  18.378 120.722 -0.23 -0.00    +0.000 A 
DOCKED: ATOM      3  C   UNL     1      34.304  17.706 121.491 -0.30 -0.00    +0.000 A 
DOCKED: ATOM      4  C   UNL     1      32.944  17.839 121.200 -0.19 -0.00    +0.000 A 
DOCKED: ATOM      5  C   UNL     1      32.528  18.637 120.125 -0.39 -0.00    +0.000 A 
DOCKED: ATOM      6  C   UNL     1      31.163  18.776 119.825 -0.45 -0.00    +0.000 A 
DOCKED: ATOM      7  C   UNL     1      30.752  19.573 118.744 -0.32 -0.00    +0.000 A 
DOCKED: ATOM      8  C   UNL     1      31.715  20.234 117.966 -0.18 -0.00    +0.000 A 
DOCKED: ATOM      9  C   UNL     1      33.075  20.101 118.257 -0.18 -0.00    +0.000 A 
DOCKED: ATOM     10  C   UNL     1      33.492  19.306 119.334 -0.25 -0.00    +0.000 A 
DOCKED: ATOM     11  C   UNL     1      34.855  19.166 119.635 -0.19 -0.00    +0.000 A 
DOCKED: ATOM     12  CM  UNL     1      33.898  18.505 120.418 +0.00 -0.00    +0.000 AC
DOCKED: ATOM     13  CM  UNL     1      32.121  19.438 119.042 +0.00 -0.00    +0.000 AC
DOCKED: BRANCH   7  12
DOCKED: ATOM     14  C   UNL     1      29.290  19.742 118.427 -0.28 -0.00    +0.000 C 
DOCKED: BRANCH  12  13
DOCKED: ATOM     15  N   UNL     1      28.775  18.537 117.742 -0.22 -0.00    +0.000 N 
DOCKED: ATOM     16  H   UNL     1      28.254  18.838 116.919 +0.01 -0.00    +0.000 HD
DOCKED: BRANCH  13  15
DOCKED: ATOM     17  C   UNL     1      27.801  17.808 118.588 -0.39 -0.00    +0.000 C 
DOCKED: ATOM     18  C   UNL     1      28.427  16.583 119.253 -0.52 -0.00    +0.000 C 
DOCKED: ENDBRANCH  13  15
DOCKED: BRANCH  13  17
DOCKED: ATOM     19  C   UNL     1      29.870  17.688 117.208 -0.23 -0.00    +0.000 C 
DOCKED: ATOM     20  C   UNL     1      29.639  17.188 115.774 -0.16 -0.00    +0.000 C 
DOCKED: ENDBRANCH  13  17
DOCKED: ENDBRANCH  12  13
DOCKED: ENDBRANCH   7  12
DOCKED: ENDBRANCH   1   2
DOCKED: BRANCH   1  19
DOCKED: ATOM     21  O   UNL     1      36.880  17.650 122.319 -0.17 -0.00    +0.000 OA
DOCKED: BRANCH  19  21
DOCKED: ATOM     22  O   UNL     1      37.269  15.854 123.714 -0.38 -0.00    +0.000 OA
DOCKED: ATOM     23  C   UNL     1      37.058  16.283 122.545 -0.28 -0.00    +0.000 C 
DOCKED: ATOM     24  N   UNL     1      37.042  15.384 121.429 -0.24 -0.00    +0.000 N 
DOCKED: ATOM     25  H   UNL     1      37.033  15.774 120.525 -0.00 -0.00    +0.000 HD
DOCKED: BRANCH  22  24
DOCKED: ATOM     26  C   UNL     1      37.038  13.951 121.541 -0.31 -0.00    +0.000 A 
DOCKED: ATOM     27  C   UNL     1      36.640  13.357 122.747 -0.48 -0.00    +0.000 A 
DOCKED: ATOM     28  C   UNL     1      36.647  11.967 122.890 -0.59 -0.00    +0.000 A 
DOCKED: ATOM     29  C   UNL     1      37.060  11.141 121.830 -0.47 -0.00    +0.000 A 
DOCKED: ATOM     30  C   UNL     1      37.493  11.739 120.633 -0.42 -0.00    +0.000 A 
DOCKED: ATOM     31  C   UNL     1      37.485  13.130 120.491 -0.42 -0.00    +0.000 A 
DOCKED: ATOM     32  CM  UNL     1      37.060  12.547 121.689 +0.00 -0.00    +0.000 AC
DOCKED: BRANCH  27  30
DOCKED: ATOM     33  C   UNL     1      37.066   9.667 121.998 -0.60 -0.00    +0.000 C 
DOCKED: ATOM     34  N   UNL     1      37.132   9.063 123.295 -0.59 -0.00    +0.000 N 
DOCKED: ATOM     35  O   UNL     1      37.028   8.925 120.979 -2.70 -0.00    +0.000 OA
DOCKED: ATOM     36  H   UNL     1      37.248   9.627 124.094 -0.56 -0.00    +0.000 HD
DOCKED: BRANCH  31  34
DOCKED: ATOM     37  O   UNL     1      37.034   7.718 123.429 -2.28 -0.00    +0.000 OA
DOCKED: ATOM     38  H   UNL     1      37.192   7.296 122.571 -0.12 -0.00    +0.000 HD
DOCKED: ENDBRANCH  31  34
DOCKED: ENDBRANCH  27  30
DOCKED: ENDBRANCH  22  24
DOCKED: ENDBRANCH  19  21
DOCKED: ENDBRANCH   1  19
DOCKED: TORSDOF 10DOCKED: TER
DOCKED: ENDMDL
________________________________________________________________________________


	BEGINNING GENETIC ALGORITHM DOCKING 26 of 100
Run: 26 Seed: 577753724 51208082 [ Run 26 of 100 GA/GALS ]
Beginning LAMARCKIAN GENETIC ALGORITHM (LGA), with a maximum of 2500000 energy evaluations.

Final-Value: -16.337


	FINAL GENETIC ALGORITHM DOCKED STATE
	_______________________________________________


Detailed state:  trans 40.141 15.917 122.076 quatxyzw 0.615289 0.366368 0.552576 0.426444 center 1.858 0.218 -0.021 ntor 10 -49.0946 -175.4737 2.1443 -180.0000 62.0573 -176.8388 93.4926 82.7984 171.8506 -3.6721
State:	 40.141  15.917 122.076   0.680  0.405  0.611 129.516    -49.09 -175.47    2.14 -180.00   62.06 -176.84   93.49   82.80  171.85   -3.67

DOCKED: MODEL       26
DOCKED: USER    Run = 26
DOCKED: USER    DPF = ligand_dock.biased.dpf
DOCKED: USER  
DOCKED: USER    Estimated Free Energy of Binding    =  -10.69 kcal/mol  [=(1)+(2)+(3)-(4)]
DOCKED: USER    Estimated Inhibition Constant, Ki   =   14.65 nM (nanomolar)  [Temperature = 298.15 K]
DOCKED: USER    
DOCKED: USER    (1) Final Intermolecular Energy     =  -13.67 kcal/mol
DOCKED: USER        vdW + Hbond + desolv Energy     =  -13.67 kcal/mol
DOCKED: USER        Electrostatic Energy            =   +0.00 kcal/mol
DOCKED: USER    (2) Final Total Internal Energy     =   -2.67 kcal/mol
DOCKED: USER    (3) Torsional Free Energy           =   +2.98 kcal/mol
DOCKED: USER    (4) Unbound System's Energy  [=(2)] =   -2.67 kcal/mol
DOCKED: USER    
DOCKED: USER    
DOCKED: USER    NEWDPF move ligand.dum.pdbqt
DOCKED: USER    NEWDPF about 1.858000 0.218000 -0.021000
DOCKED: USER    NEWDPF tran0 40.140634 15.916931 122.076011
DOCKED: USER    NEWDPF quaternion0 0.615289 0.366368 0.552576 0.426444
DOCKED: USER    NEWDPF axisangle0 0.680242 0.405044 0.610909 129.515805
DOCKED: USER    NEWDPF quat0 0.680242 0.405044 0.610909 129.515805
DOCKED: USER    NEWDPF dihe0 -49.09 -175.47 2.14 -180.00 62.06 -176.84 93.49 82.80 171.85 -3.67 
DOCKED: USER  keepresnum = 1 
DOCKED: USER  
DOCKED: REMARK  Name = 
DOCKED: REMARK  12 active torsions:
DOCKED: REMARK  status: ('A' for Active; 'I' for Inactive)
DOCKED: REMARK    1  A    between atoms: C_2  and  O_3
DOCKED: REMARK    2  A    between atoms: O_3  and  C_4
DOCKED: REMARK    3  A    between atoms: C_4  and  C_5
DOCKED: REMARK    4  A    between atoms: C_10  and  C_11
DOCKED: REMARK    5  A    between atoms: C_11  and  N_12
DOCKED: REMARK    6  A    between atoms: N_12  and  C_13
DOCKED: REMARK    7  A    between atoms: N_12  and  C_15
DOCKED: REMARK    8  A    between atoms: C_13  and  C_14
DOCKED: REMARK    9  A    between atoms: C_15  and  C_16
DOCKED: REMARK   10  A    between atoms: N_21  and  C_22
DOCKED: REMARK   11  A    between atoms: C_25  and  C_26
DOCKED: REMARK   12  A    between atoms: N_27  and  O_28
DOCKED: REMARK                            x       y       z     vdW  Elec       q    Type
DOCKED: REMARK                         _______ _______ _______ _____ _____    ______ ____
DOCKED: USER                              x       y       z     vdW  Elec       q    Type
DOCKED: USER                           _______ _______ _______ _____ _____    ______ ____
DOCKED: ROOT
DOCKED: ATOM      1  C   UNL     1      40.066  17.557 121.961 -0.14 -0.00    +0.000 C 
DOCKED: ENDROOT
DOCKED: BRANCH   1   2
DOCKED: ATOM      2  C   UNL     1      39.606  17.139 120.594 -0.09 -0.00    +0.000 A 
DOCKED: ATOM      3  C   UNL     1      38.235  17.050 120.308 -0.08 -0.00    +0.000 A 
DOCKED: ATOM      4  C   UNL     1      37.801  16.628 119.049 -0.10 -0.00    +0.000 A 
DOCKED: ATOM      5  C   UNL     1      38.733  16.275 118.062 -0.11 -0.00    +0.000 A 
DOCKED: ATOM      6  C   UNL     1      38.305  15.849 116.795 -0.13 -0.00    +0.000 A 
DOCKED: ATOM      7  C   UNL     1      39.244  15.492 115.813 -0.21 -0.00    +0.000 A 
DOCKED: ATOM      8  C   UNL     1      40.615  15.567 116.105 -0.26 -0.00    +0.000 A 
DOCKED: ATOM      9  C   UNL     1      41.048  15.990 117.364 -0.19 -0.00    +0.000 A 
DOCKED: ATOM     10  C   UNL     1      40.117  16.346 118.349 -0.12 -0.00    +0.000 A 
DOCKED: ATOM     11  C   UNL     1      40.544  16.772 119.616 -0.10 -0.00    +0.000 A 
DOCKED: ATOM     12  CM  UNL     1      39.173  16.702 119.330 +0.00 -0.00    +0.000 AC
DOCKED: ATOM     13  CM  UNL     1      39.677  15.920 117.082 +0.00 -0.00    +0.000 AC
DOCKED: BRANCH   7  12
DOCKED: ATOM     14  C   UNL     1      38.794  15.051 114.445 -0.26 -0.00    +0.000 C 
DOCKED: BRANCH  12  13
DOCKED: ATOM     15  N   UNL     1      38.054  13.774 114.539 -0.36 -0.00    +0.000 N 
DOCKED: ATOM     16  H   UNL     1      38.266  13.224 113.708 -0.03 -0.00    +0.000 HD
DOCKED: BRANCH  13  15
DOCKED: ATOM     17  C   UNL     1      36.589  13.994 114.511 -0.32 -0.00    +0.000 C 
DOCKED: ATOM     18  C   UNL     1      35.938  13.343 113.292 -0.32 -0.00    +0.000 C 
DOCKED: ENDBRANCH  13  15
DOCKED: BRANCH  13  17
DOCKED: ATOM     19  C   UNL     1      38.522  12.942 115.676 -0.55 -0.00    +0.000 C 
DOCKED: ATOM     20  C   UNL     1      39.316  11.695 115.260 -0.44 -0.00    +0.000 C 
DOCKED: ENDBRANCH  13  17
DOCKED: ENDBRANCH  12  13
DOCKED: ENDBRANCH   7  12
DOCKED: ENDBRANCH   1   2
DOCKED: BRANCH   1  19
DOCKED: ATOM     21  O   UNL     1      40.131  16.411 122.804 -0.31 -0.00    +0.000 OA
DOCKED: BRANCH  19  21
DOCKED: ATOM     22  O   UNL     1      40.349  14.403 121.689 -1.00 -0.00    +0.000 OA
DOCKED: ATOM     23  C   UNL     1      39.646  15.160 122.415 -0.40 -0.00    +0.000 C 
DOCKED: ATOM     24  N   UNL     1      38.327  14.768 122.816 -0.39 -0.00    +0.000 N 
DOCKED: ATOM     25  H   UNL     1      37.756  15.446 123.244 -0.02 -0.00    +0.000 HD
DOCKED: BRANCH  22  24
DOCKED: ATOM     26  C   UNL     1      37.781  13.450 122.634 -0.45 -0.00    +0.000 A 
DOCKED: ATOM     27  C   UNL     1      37.785  12.875 121.356 -0.42 -0.00    +0.000 A 
DOCKED: ATOM     28  C   UNL     1      37.241  11.605 121.147 -0.42 -0.00    +0.000 A 
DOCKED: ATOM     29  C   UNL     1      36.673  10.886 122.213 -0.57 -0.00    +0.000 A 
DOCKED: ATOM     30  C   UNL     1      36.637  11.479 123.488 -0.63 -0.00    +0.000 A 
DOCKED: ATOM     31  C   UNL     1      37.183  12.750 123.696 -0.44 -0.00    +0.000 A 
DOCKED: ATOM     32  CM  UNL     1      37.216  12.174 122.422 +0.00 -0.00    +0.000 AC
DOCKED: BRANCH  27  30
DOCKED: ATOM     33  C   UNL     1      36.095   9.540 121.976 -0.59 -0.00    +0.000 C 
DOCKED: ATOM     34  N   UNL     1      34.886   9.122 122.621 -0.60 -0.00    +0.000 N 
DOCKED: ATOM     35  O   UNL     1      36.685   8.739 121.201 -2.51 -0.00    +0.000 OA
DOCKED: ATOM     36  H   UNL     1      34.462   9.704 123.292 -0.45 -0.00    +0.000 HD
DOCKED: BRANCH  31  34
DOCKED: ATOM     37  O   UNL     1      34.324   7.929 122.311 -0.66 -0.00    +0.000 OA
DOCKED: ATOM     38  H   UNL     1      34.880   7.468 121.663 -0.01 -0.00    +0.000 HD
DOCKED: ENDBRANCH  31  34
DOCKED: ENDBRANCH  27  30
DOCKED: ENDBRANCH  22  24
DOCKED: ENDBRANCH  19  21
DOCKED: ENDBRANCH   1  19
DOCKED: TORSDOF 10DOCKED: TER
DOCKED: ENDMDL
________________________________________________________________________________


	BEGINNING GENETIC ALGORITHM DOCKING 27 of 100
Run: 27 Seed: 1298148989 40216589 [ Run 27 of 100 GA/GALS ]
Beginning LAMARCKIAN GENETIC ALGORITHM (LGA), with a maximum of 2500000 energy evaluations.

Final-Value: -18.175


	FINAL GENETIC ALGORITHM DOCKED STATE
	_______________________________________________


Detailed state:  trans 36.323 16.837 122.675 quatxyzw -0.420777 -0.685377 -0.554239 -0.214534 center 1.858 0.218 -0.021 ntor 10 69.3895 -127.5146 -18.9168 146.2725 5.2379 164.9288 -111.4638 -113.7414 164.5659 178.8078
State:	 36.323  16.837 122.675  -0.431 -0.702 -0.567 -155.224     69.39 -127.51  -18.92  146.27    5.24  164.93 -111.46 -113.74  164.57  178.81

DOCKED: MODEL       27
DOCKED: USER    Run = 27
DOCKED: USER    DPF = ligand_dock.biased.dpf
DOCKED: USER  
DOCKED: USER    Estimated Free Energy of Binding    =  -12.16 kcal/mol  [=(1)+(2)+(3)-(4)]
DOCKED: USER    Estimated Inhibition Constant, Ki   =    1.21 nM (nanomolar)  [Temperature = 298.15 K]
DOCKED: USER    
DOCKED: USER    (1) Final Intermolecular Energy     =  -15.15 kcal/mol
DOCKED: USER        vdW + Hbond + desolv Energy     =  -15.15 kcal/mol
DOCKED: USER        Electrostatic Energy            =   +0.00 kcal/mol
DOCKED: USER    (2) Final Total Internal Energy     =   -3.03 kcal/mol
DOCKED: USER    (3) Torsional Free Energy           =   +2.98 kcal/mol
DOCKED: USER    (4) Unbound System's Energy  [=(2)] =   -3.03 kcal/mol
DOCKED: USER    
DOCKED: USER    
DOCKED: USER    NEWDPF move ligand.dum.pdbqt
DOCKED: USER    NEWDPF about 1.858000 0.218000 -0.021000
DOCKED: USER    NEWDPF tran0 36.322908 16.837193 122.675418
DOCKED: USER    NEWDPF quaternion0 -0.420777 -0.685377 -0.554239 -0.214534
DOCKED: USER    NEWDPF axisangle0 -0.430808 -0.701715 -0.567451 -155.223599
DOCKED: USER    NEWDPF quat0 -0.430808 -0.701715 -0.567451 -155.223599
DOCKED: USER    NEWDPF dihe0 69.39 -127.51 -18.92 146.27 5.24 164.93 -111.46 -113.74 164.57 178.81 
DOCKED: USER  keepresnum = 1 
DOCKED: USER  
DOCKED: REMARK  Name = 
DOCKED: REMARK  12 active torsions:
DOCKED: REMARK  status: ('A' for Active; 'I' for Inactive)
DOCKED: REMARK    1  A    between atoms: C_2  and  O_3
DOCKED: REMARK    2  A    between atoms: O_3  and  C_4
DOCKED: REMARK    3  A    between atoms: C_4  and  C_5
DOCKED: REMARK    4  A    between atoms: C_10  and  C_11
DOCKED: REMARK    5  A    between atoms: C_11  and  N_12
DOCKED: REMARK    6  A    between atoms: N_12  and  C_13
DOCKED: REMARK    7  A    between atoms: N_12  and  C_15
DOCKED: REMARK    8  A    between atoms: C_13  and  C_14
DOCKED: REMARK    9  A    between atoms: C_15  and  C_16
DOCKED: REMARK   10  A    between atoms: N_21  and  C_22
DOCKED: REMARK   11  A    between atoms: C_25  and  C_26
DOCKED: REMARK   12  A    between atoms: N_27  and  O_28
DOCKED: REMARK                            x       y       z     vdW  Elec       q    Type
DOCKED: REMARK                         _______ _______ _______ _____ _____    ______ ____
DOCKED: USER                              x       y       z     vdW  Elec       q    Type
DOCKED: USER                           _______ _______ _______ _____ _____    ______ ____
DOCKED: ROOT
DOCKED: ATOM      1  C   UNL     1      36.132  18.174 121.735 -0.21 -0.00    +0.000 C 
DOCKED: ENDROOT
DOCKED: BRANCH   1   2
DOCKED: ATOM      2  C   UNL     1      36.732  17.204 120.759 -0.14 -0.00    +0.000 A 
DOCKED: ATOM      3  C   UNL     1      38.118  16.987 120.740 -0.10 -0.00    +0.000 A 
DOCKED: ATOM      4  C   UNL     1      38.687  16.113 119.811 -0.13 -0.00    +0.000 A 
DOCKED: ATOM      5  C   UNL     1      37.876  15.453 118.876 -0.17 -0.00    +0.000 A 
DOCKED: ATOM      6  C   UNL     1      38.439  14.573 117.938 -0.08 -0.00    +0.000 A 
DOCKED: ATOM      7  C   UNL     1      37.623  13.919 117.001 -0.33 -0.00    +0.000 A 
DOCKED: ATOM      8  C   UNL     1      36.238  14.146 117.010 -0.32 -0.00    +0.000 A 
DOCKED: ATOM      9  C   UNL     1      35.670  15.021 117.940 -0.19 -0.00    +0.000 A 
DOCKED: ATOM     10  C   UNL     1      36.479  15.678 118.877 -0.17 -0.00    +0.000 A 
DOCKED: ATOM     11  C   UNL     1      35.918  16.558 119.815 -0.06 -0.00    +0.000 A 
DOCKED: ATOM     12  CM  UNL     1      37.302  16.332 119.813 +0.00 -0.00    +0.000 AC
DOCKED: ATOM     13  CM  UNL     1      37.054  14.798 117.940 +0.00 -0.00    +0.000 AC
DOCKED: BRANCH   7  12
DOCKED: ATOM     14  C   UNL     1      38.216  12.959 116.003 -0.50 -0.00    +0.000 C 
DOCKED: BRANCH  12  13
DOCKED: ATOM     15  N   UNL     1      38.740  13.699 114.835 -0.41 -0.00    +0.000 N 
DOCKED: ATOM     16  H   UNL     1      39.111  13.021 114.171 +0.02 -0.00    +0.000 HD
DOCKED: BRANCH  13  15
DOCKED: ATOM     17  C   UNL     1      39.886  14.561 115.210 -0.36 -0.00    +0.000 C 
DOCKED: ATOM     18  C   UNL     1      39.653  16.020 114.823 -0.21 -0.00    +0.000 C 
DOCKED: ENDBRANCH  13  15
DOCKED: BRANCH  13  17
DOCKED: ATOM     19  C   UNL     1      37.665  14.406 114.095 -0.29 -0.00    +0.000 C 
DOCKED: ATOM     20  C   UNL     1      36.578  13.483 113.525 -0.33 -0.00    +0.000 C 
DOCKED: ENDBRANCH  13  17
DOCKED: ENDBRANCH  12  13
DOCKED: ENDBRANCH   7  12
DOCKED: ENDBRANCH   1   2
DOCKED: BRANCH   1  19
DOCKED: ATOM     21  O   UNL     1      35.778  17.480 122.927 -0.27 -0.00    +0.000 OA
DOCKED: BRANCH  19  21
DOCKED: ATOM     22  O   UNL     1      34.573  15.533 123.209 -0.50 -0.00    +0.000 OA
DOCKED: ATOM     23  C   UNL     1      35.686  16.088 122.991 -0.38 -0.00    +0.000 C 
DOCKED: ATOM     24  N   UNL     1      36.878  15.303 122.850 -0.35 -0.00    +0.000 N 
DOCKED: ATOM     25  H   UNL     1      37.741  15.777 122.840 -0.01 -0.00    +0.000 HD
DOCKED: BRANCH  22  24
DOCKED: ATOM     26  C   UNL     1      36.896  13.871 122.722 -0.45 -0.00    +0.000 A 
DOCKED: ATOM     27  C   UNL     1      37.066  13.297 121.454 -0.40 -0.00    +0.000 A 
DOCKED: ATOM     28  C   UNL     1      37.067  11.909 121.298 -0.49 -0.00    +0.000 A 
DOCKED: ATOM     29  C   UNL     1      36.889  11.064 122.408 -0.54 -0.00    +0.000 A 
DOCKED: ATOM     30  C   UNL     1      36.683  11.642 123.673 -0.62 -0.00    +0.000 A 
DOCKED: ATOM     31  C   UNL     1      36.683  13.032 123.829 -0.49 -0.00    +0.000 A 
DOCKED: ATOM     32  CM  UNL     1      36.881  12.469 122.564 +0.00 -0.00    +0.000 AC
DOCKED: BRANCH  27  30
DOCKED: ATOM     33  C   UNL     1      36.887   9.592 122.226 -0.65 -0.00    +0.000 C 
DOCKED: ATOM     34  N   UNL     1      37.079   8.702 123.333 -0.66 -0.00    +0.000 N 
DOCKED: ATOM     35  O   UNL     1      36.729   9.108 121.072 -2.62 -0.00    +0.000 OA
DOCKED: ATOM     36  H   UNL     1      37.288   9.066 124.224 -0.59 -0.00    +0.000 HD
DOCKED: BRANCH  31  34
DOCKED: ATOM     37  O   UNL     1      36.972   7.363 123.160 -2.12 -0.00    +0.000 OA
DOCKED: ATOM     38  H   UNL     1      36.484   7.181 122.342 -0.04 -0.00    +0.000 HD
DOCKED: ENDBRANCH  31  34
DOCKED: ENDBRANCH  27  30
DOCKED: ENDBRANCH  22  24
DOCKED: ENDBRANCH  19  21
DOCKED: ENDBRANCH   1  19
DOCKED: TORSDOF 10DOCKED: TER
DOCKED: ENDMDL
________________________________________________________________________________


	BEGINNING GENETIC ALGORITHM DOCKING 28 of 100
Run: 28 Seed: 1885816853 205774950 [ Run 28 of 100 GA/GALS ]
Beginning LAMARCKIAN GENETIC ALGORITHM (LGA), with a maximum of 2500000 energy evaluations.

Final-Value: -17.659


	FINAL GENETIC ALGORITHM DOCKED STATE
	_______________________________________________


Detailed state:  trans 36.458 17.679 120.931 quatxyzw 0.362362 -0.521450 0.014419 0.772383 center 1.858 0.218 -0.021 ntor 10 179.6166 161.5551 9.6191 -68.8706 174.3725 115.3894 14.5172 167.9990 105.7101 148.6753
State:	 36.458  17.679 120.931   0.571 -0.821  0.023 78.863    179.62  161.56    9.62  -68.87  174.37  115.39   14.52  168.00  105.71  148.68

DOCKED: MODEL       28
DOCKED: USER    Run = 28
DOCKED: USER    DPF = ligand_dock.biased.dpf
DOCKED: USER  
DOCKED: USER    Estimated Free Energy of Binding    =  -12.38 kcal/mol  [=(1)+(2)+(3)-(4)]
DOCKED: USER    Estimated Inhibition Constant, Ki   =  836.63 pM (picomolar)  [Temperature = 298.15 K]
DOCKED: USER    
DOCKED: USER    (1) Final Intermolecular Energy     =  -15.37 kcal/mol
DOCKED: USER        vdW + Hbond + desolv Energy     =  -15.37 kcal/mol
DOCKED: USER        Electrostatic Energy            =   +0.00 kcal/mol
DOCKED: USER    (2) Final Total Internal Energy     =   -2.29 kcal/mol
DOCKED: USER    (3) Torsional Free Energy           =   +2.98 kcal/mol
DOCKED: USER    (4) Unbound System's Energy  [=(2)] =   -2.29 kcal/mol
DOCKED: USER    
DOCKED: USER    
DOCKED: USER    NEWDPF move ligand.dum.pdbqt
DOCKED: USER    NEWDPF about 1.858000 0.218000 -0.021000
DOCKED: USER    NEWDPF tran0 36.457971 17.678562 120.930853
DOCKED: USER    NEWDPF quaternion0 0.362362 -0.521450 0.014419 0.772383
DOCKED: USER    NEWDPF axisangle0 0.570508 -0.820978 0.022702 78.863271
DOCKED: USER    NEWDPF quat0 0.570508 -0.820978 0.022702 78.863271
DOCKED: USER    NEWDPF dihe0 179.62 161.56 9.62 -68.87 174.37 115.39 14.52 168.00 105.71 148.68 
DOCKED: USER  keepresnum = 1 
DOCKED: USER  
DOCKED: REMARK  Name = 
DOCKED: REMARK  12 active torsions:
DOCKED: REMARK  status: ('A' for Active; 'I' for Inactive)
DOCKED: REMARK    1  A    between atoms: C_2  and  O_3
DOCKED: REMARK    2  A    between atoms: O_3  and  C_4
DOCKED: REMARK    3  A    between atoms: C_4  and  C_5
DOCKED: REMARK    4  A    between atoms: C_10  and  C_11
DOCKED: REMARK    5  A    between atoms: C_11  and  N_12
DOCKED: REMARK    6  A    between atoms: N_12  and  C_13
DOCKED: REMARK    7  A    between atoms: N_12  and  C_15
DOCKED: REMARK    8  A    between atoms: C_13  and  C_14
DOCKED: REMARK    9  A    between atoms: C_15  and  C_16
DOCKED: REMARK   10  A    between atoms: N_21  and  C_22
DOCKED: REMARK   11  A    between atoms: C_25  and  C_26
DOCKED: REMARK   12  A    between atoms: N_27  and  O_28
DOCKED: REMARK                            x       y       z     vdW  Elec       q    Type
DOCKED: REMARK                         _______ _______ _______ _____ _____    ______ ____
DOCKED: USER                              x       y       z     vdW  Elec       q    Type
DOCKED: USER                           _______ _______ _______ _____ _____    ______ ____
DOCKED: ROOT
DOCKED: ATOM      1  C   UNL     1      37.844  18.074 121.724 -0.10 -0.00    +0.000 C 
DOCKED: ENDROOT
DOCKED: BRANCH   1   2
DOCKED: ATOM      2  C   UNL     1      36.817  18.272 122.800 -0.15 -0.00    +0.000 A 
DOCKED: ATOM      3  C   UNL     1      36.524  19.562 123.268 -0.16 -0.00    +0.000 A 
DOCKED: ATOM      4  C   UNL     1      35.595  19.750 124.294 -0.16 -0.00    +0.000 A 
DOCKED: ATOM      5  C   UNL     1      34.955  18.647 124.877 -0.26 -0.00    +0.000 A 
DOCKED: ATOM      6  C   UNL     1      34.021  18.826 125.909 -0.27 -0.00    +0.000 A 
DOCKED: ATOM      7  C   UNL     1      33.387  17.717 126.493 -0.31 -0.00    +0.000 A 
DOCKED: ATOM      8  C   UNL     1      33.691  16.425 126.035 -0.36 -0.00    +0.000 A 
DOCKED: ATOM      9  C   UNL     1      34.620  16.238 125.009 -0.42 -0.00    +0.000 A 
DOCKED: ATOM     10  C   UNL     1      35.257  17.341 124.423 -0.33 -0.00    +0.000 A 
DOCKED: ATOM     11  C   UNL     1      36.191  17.163 123.391 -0.26 -0.00    +0.000 A 
DOCKED: ATOM     12  CM  UNL     1      35.890  18.455 123.842 -0.07 -0.00    +0.000 AC
DOCKED: ATOM     13  CM  UNL     1      34.322  17.532 125.458 -0.33 -0.00    +0.000 AC
DOCKED: BRANCH   7  12
DOCKED: ATOM     14  C   UNL     1      32.370  17.902 127.588 -0.28 -0.00    +0.000 C 
DOCKED: BRANCH  12  13
DOCKED: ATOM     15  N   UNL     1      32.643  16.965 128.699 -0.36 -0.00    +0.000 N 
DOCKED: ATOM     16  H   UNL     1      33.019  16.105 128.302 -0.15 -0.00    +0.000 HD
DOCKED: BRANCH  13  15
DOCKED: ATOM     17  C   UNL     1      31.395  16.573 129.395 -0.41 -0.00    +0.000 C 
DOCKED: ATOM     18  C   UNL     1      30.225  17.483 129.025 -0.46 -0.00    +0.000 C 
DOCKED: ENDBRANCH  13  15
DOCKED: BRANCH  13  17
DOCKED: ATOM     19  C   UNL     1      33.710  17.465 129.601 -0.23 -0.00    +0.000 C 
DOCKED: ATOM     20  C   UNL     1      34.798  16.431 129.926 -0.20 -0.00    +0.000 C 
DOCKED: ENDBRANCH  13  17
DOCKED: ENDBRANCH  12  13
DOCKED: ENDBRANCH   7  12
DOCKED: ENDBRANCH   1   2
DOCKED: BRANCH   1  19
DOCKED: ATOM     21  O   UNL     1      37.237  17.427 120.610 -0.12 -0.00    +0.000 OA
DOCKED: BRANCH  19  21
DOCKED: ATOM     22  O   UNL     1      36.154  15.597 119.716 -0.15 -0.00    +0.000 OA
DOCKED: ATOM     23  C   UNL     1      36.905  16.070 120.614 -0.20 -0.00    +0.000 C 
DOCKED: ATOM     24  N   UNL     1      37.392  15.236 121.673 -0.26 -0.00    +0.000 N 
DOCKED: ATOM     25  H   UNL     1      37.840  15.673 122.433 -0.00 -0.00    +0.000 HD
DOCKED: BRANCH  22  24
DOCKED: ATOM     26  C   UNL     1      37.271  13.804 121.699 -0.38 -0.00    +0.000 A 
DOCKED: ATOM     27  C   UNL     1      36.820  13.173 122.867 -0.52 -0.00    +0.000 A 
DOCKED: ATOM     28  C   UNL     1      36.714  11.781 122.926 -0.60 -0.00    +0.000 A 
DOCKED: ATOM     29  C   UNL     1      37.066  10.989 121.820 -0.46 -0.00    +0.000 A 
DOCKED: ATOM     30  C   UNL     1      37.552  11.620 120.661 -0.36 -0.00    +0.000 A 
DOCKED: ATOM     31  C   UNL     1      37.657  13.013 120.602 -0.43 -0.00    +0.000 A 
DOCKED: ATOM     32  CM  UNL     1      37.180  12.397 121.763 +0.00 -0.00    +0.000 AC
DOCKED: BRANCH  27  30
DOCKED: ATOM     33  C   UNL     1      36.952   9.512 121.899 -0.63 -0.00    +0.000 C 
DOCKED: ATOM     34  N   UNL     1      37.080   8.819 123.147 -0.68 -0.00    +0.000 N 
DOCKED: ATOM     35  O   UNL     1      36.752   8.847 120.847 -2.63 -0.00    +0.000 OA
DOCKED: ATOM     36  H   UNL     1      37.321   9.316 123.962 -0.51 -0.00    +0.000 HD
DOCKED: BRANCH  31  34
DOCKED: ATOM     37  O   UNL     1      36.872   7.482 123.210 -2.13 -0.00    +0.000 OA
DOCKED: ATOM     38  H   UNL     1      36.796   7.123 122.312 -0.07 -0.00    +0.000 HD
DOCKED: ENDBRANCH  31  34
DOCKED: ENDBRANCH  27  30
DOCKED: ENDBRANCH  22  24
DOCKED: ENDBRANCH  19  21
DOCKED: ENDBRANCH   1  19
DOCKED: TORSDOF 10DOCKED: TER
DOCKED: ENDMDL
________________________________________________________________________________


	BEGINNING GENETIC ALGORITHM DOCKING 29 of 100
Run: 29 Seed: 106493607 1207675315 [ Run 29 of 100 GA/GALS ]
Beginning LAMARCKIAN GENETIC ALGORITHM (LGA), with a maximum of 2500000 energy evaluations.

Final-Value: -17.590


	FINAL GENETIC ALGORITHM DOCKED STATE
	_______________________________________________


Detailed state:  trans 36.775 17.143 122.798 quatxyzw -0.926671 -0.052260 -0.305260 -0.212995 center 1.858 0.218 -0.021 ntor 10 -138.6369 126.2234 23.3826 -107.5352 168.8198 -28.1470 -136.7806 127.0377 -96.6826 -65.6532
State:	 36.775  17.143 122.798  -0.948 -0.053 -0.312 -155.404   -138.64  126.22   23.38 -107.54  168.82  -28.15 -136.78  127.04  -96.68  -65.65

DOCKED: MODEL       29
DOCKED: USER    Run = 29
DOCKED: USER    DPF = ligand_dock.biased.dpf
DOCKED: USER  
DOCKED: USER    Estimated Free Energy of Binding    =  -12.38 kcal/mol  [=(1)+(2)+(3)-(4)]
DOCKED: USER    Estimated Inhibition Constant, Ki   =  847.69 pM (picomolar)  [Temperature = 298.15 K]
DOCKED: USER    
DOCKED: USER    (1) Final Intermolecular Energy     =  -15.36 kcal/mol
DOCKED: USER        vdW + Hbond + desolv Energy     =  -15.36 kcal/mol
DOCKED: USER        Electrostatic Energy            =   +0.00 kcal/mol
DOCKED: USER    (2) Final Total Internal Energy     =   -2.23 kcal/mol
DOCKED: USER    (3) Torsional Free Energy           =   +2.98 kcal/mol
DOCKED: USER    (4) Unbound System's Energy  [=(2)] =   -2.23 kcal/mol
DOCKED: USER    
DOCKED: USER    
DOCKED: USER    NEWDPF move ligand.dum.pdbqt
DOCKED: USER    NEWDPF about 1.858000 0.218000 -0.021000
DOCKED: USER    NEWDPF tran0 36.775333 17.142608 122.798203
DOCKED: USER    NEWDPF quaternion0 -0.926671 -0.052260 -0.305260 -0.212995
DOCKED: USER    NEWDPF axisangle0 -0.948434 -0.053487 -0.312429 -155.404187
DOCKED: USER    NEWDPF quat0 -0.948434 -0.053487 -0.312429 -155.404187
DOCKED: USER    NEWDPF dihe0 -138.64 126.22 23.38 -107.54 168.82 -28.15 -136.78 127.04 -96.68 -65.65 
DOCKED: USER  keepresnum = 1 
DOCKED: USER  
DOCKED: REMARK  Name = 
DOCKED: REMARK  12 active torsions:
DOCKED: REMARK  status: ('A' for Active; 'I' for Inactive)
DOCKED: REMARK    1  A    between atoms: C_2  and  O_3
DOCKED: REMARK    2  A    between atoms: O_3  and  C_4
DOCKED: REMARK    3  A    between atoms: C_4  and  C_5
DOCKED: REMARK    4  A    between atoms: C_10  and  C_11
DOCKED: REMARK    5  A    between atoms: C_11  and  N_12
DOCKED: REMARK    6  A    between atoms: N_12  and  C_13
DOCKED: REMARK    7  A    between atoms: N_12  and  C_15
DOCKED: REMARK    8  A    between atoms: C_13  and  C_14
DOCKED: REMARK    9  A    between atoms: C_15  and  C_16
DOCKED: REMARK   10  A    between atoms: N_21  and  C_22
DOCKED: REMARK   11  A    between atoms: C_25  and  C_26
DOCKED: REMARK   12  A    between atoms: N_27  and  O_28
DOCKED: REMARK                            x       y       z     vdW  Elec       q    Type
DOCKED: REMARK                         _______ _______ _______ _____ _____    ______ ____
DOCKED: USER                              x       y       z     vdW  Elec       q    Type
DOCKED: USER                           _______ _______ _______ _____ _____    ______ ____
DOCKED: ROOT
DOCKED: ATOM      1  C   UNL     1      37.314  18.383 121.860 -0.12 -0.00    +0.000 C 
DOCKED: ENDROOT
DOCKED: BRANCH   1   2
DOCKED: ATOM      2  C   UNL     1      35.873  18.303 121.451 -0.20 -0.00    +0.000 A 
DOCKED: ATOM      3  C   UNL     1      34.890  17.954 122.391 -0.30 -0.00    +0.000 A 
DOCKED: ATOM      4  C   UNL     1      33.551  17.844 122.009 -0.17 -0.00    +0.000 A 
DOCKED: ATOM      5  C   UNL     1      33.178  18.067 120.675 -0.26 -0.00    +0.000 A 
DOCKED: ATOM      6  C   UNL     1      31.835  17.957 120.282 -0.25 -0.00    +0.000 A 
DOCKED: ATOM      7  C   UNL     1      31.467  18.177 118.945 -0.34 -0.00    +0.000 A 
DOCKED: ATOM      8  C   UNL     1      32.452  18.512 118.002 -0.19 -0.00    +0.000 A 
DOCKED: ATOM      9  C   UNL     1      33.791  18.623 118.385 -0.18 -0.00    +0.000 A 
DOCKED: ATOM     10  C   UNL     1      34.164  18.403 119.718 -0.26 -0.00    +0.000 A 
DOCKED: ATOM     11  C   UNL     1      35.507  18.512 120.112 -0.19 -0.00    +0.000 A 
DOCKED: ATOM     12  CM  UNL     1      34.527  18.181 121.059 +0.00 -0.00    +0.000 AC
DOCKED: ATOM     13  CM  UNL     1      32.815  18.290 119.334 +0.00 -0.00    +0.000 AC
DOCKED: BRANCH   7  12
DOCKED: ATOM     14  C   UNL     1      30.026  18.080 118.518 -0.38 -0.00    +0.000 C 
DOCKED: BRANCH  12  13
DOCKED: ATOM     15  N   UNL     1      29.326  19.352 118.797 -0.27 -0.00    +0.000 N 
DOCKED: ATOM     16  H   UNL     1      29.196  19.428 119.805 -0.32 -0.00    +0.000 HD
DOCKED: BRANCH  13  15
DOCKED: ATOM     17  C   UNL     1      27.963  19.358 118.216 -0.26 -0.00    +0.000 C 
DOCKED: ATOM     18  C   UNL     1      27.385  17.948 118.101 -0.35 -0.00    +0.000 C 
DOCKED: ENDBRANCH  13  15
DOCKED: BRANCH  13  17
DOCKED: ATOM     19  C   UNL     1      30.147  20.533 118.430 -0.28 -0.00    +0.000 C 
DOCKED: ATOM     20  C   UNL     1      29.617  21.866 118.978 -0.25 -0.00    +0.000 C 
DOCKED: ENDBRANCH  13  17
DOCKED: ENDBRANCH  12  13
DOCKED: ENDBRANCH   7  12
DOCKED: ENDBRANCH   1   2
DOCKED: BRANCH   1  19
DOCKED: ATOM     21  O   UNL     1      37.524  17.557 123.001 -0.19 -0.00    +0.000 OA
DOCKED: BRANCH  19  21
DOCKED: ATOM     22  O   UNL     1      38.768  15.665 123.446 -0.30 -0.00    +0.000 OA
DOCKED: ATOM     23  C   UNL     1      37.750  16.181 122.906 -0.29 -0.00    +0.000 C 
DOCKED: ATOM     24  N   UNL     1      36.835  15.375 122.152 -0.28 -0.00    +0.000 N 
DOCKED: ATOM     25  H   UNL     1      36.148  15.836 121.619 -0.01 -0.00    +0.000 HD
DOCKED: BRANCH  22  24
DOCKED: ATOM     26  C   UNL     1      36.854  13.938 122.123 -0.35 -0.00    +0.000 A 
DOCKED: ATOM     27  C   UNL     1      36.362  13.221 123.223 -0.53 -0.00    +0.000 A 
DOCKED: ATOM     28  C   UNL     1      36.389  11.824 123.229 -0.62 -0.00    +0.000 A 
DOCKED: ATOM     29  C   UNL     1      36.916  11.114 122.137 -0.51 -0.00    +0.000 A 
DOCKED: ATOM     30  C   UNL     1      37.441  11.834 121.049 -0.43 -0.00    +0.000 A 
DOCKED: ATOM     31  C   UNL     1      37.414  13.232 121.043 -0.42 -0.00    +0.000 A 
DOCKED: ATOM     32  CM  UNL     1      36.896  12.527 122.134 +0.00 -0.00    +0.000 AC
DOCKED: BRANCH  27  30
DOCKED: ATOM     33  C   UNL     1      36.941   9.631 122.159 -0.63 -0.00    +0.000 C 
DOCKED: ATOM     34  N   UNL     1      37.141   8.905 123.379 -0.59 -0.00    +0.000 N 
DOCKED: ATOM     35  O   UNL     1      36.799   8.990 121.082 -2.64 -0.00    +0.000 OA
DOCKED: ATOM     36  H   UNL     1      37.338   9.391 124.212 -0.62 -0.00    +0.000 HD
DOCKED: BRANCH  31  34
DOCKED: ATOM     37  O   UNL     1      37.059   7.553 123.391 -2.22 -0.00    +0.000 OA
DOCKED: ATOM     38  H   UNL     1      37.229   7.211 122.499 -0.14 -0.00    +0.000 HD
DOCKED: ENDBRANCH  31  34
DOCKED: ENDBRANCH  27  30
DOCKED: ENDBRANCH  22  24
DOCKED: ENDBRANCH  19  21
DOCKED: ENDBRANCH   1  19
DOCKED: TORSDOF 10DOCKED: TER
DOCKED: ENDMDL
________________________________________________________________________________


	BEGINNING GENETIC ALGORITHM DOCKING 30 of 100
Run: 30 Seed: 544417749 1807707431 [ Run 30 of 100 GA/GALS ]
Beginning LAMARCKIAN GENETIC ALGORITHM (LGA), with a maximum of 2500000 energy evaluations.

Final-Value: -17.156


	FINAL GENETIC ALGORITHM DOCKED STATE
	_______________________________________________


Detailed state:  trans 36.618 13.597 123.687 quatxyzw -0.915833 0.353434 0.133845 -0.135722 center 1.858 0.218 -0.021 ntor 10 19.3403 -180.0000 3.1106 -44.5365 -166.0158 -135.6768 178.9870 -39.6535 -96.6157 -154.3849
State:	 36.618  13.597 123.687  -0.924  0.357  0.135 -164.399     19.34 -180.00    3.11  -44.54 -166.02 -135.68  178.99  -39.65  -96.62 -154.38

DOCKED: MODEL       30
DOCKED: USER    Run = 30
DOCKED: USER    DPF = ligand_dock.biased.dpf
DOCKED: USER  
DOCKED: USER    Estimated Free Energy of Binding    =  -12.43 kcal/mol  [=(1)+(2)+(3)-(4)]
DOCKED: USER    Estimated Inhibition Constant, Ki   =  769.54 pM (picomolar)  [Temperature = 298.15 K]
DOCKED: USER    
DOCKED: USER    (1) Final Intermolecular Energy     =  -15.42 kcal/mol
DOCKED: USER        vdW + Hbond + desolv Energy     =  -15.42 kcal/mol
DOCKED: USER        Electrostatic Energy            =   +0.00 kcal/mol
DOCKED: USER    (2) Final Total Internal Energy     =   -1.74 kcal/mol
DOCKED: USER    (3) Torsional Free Energy           =   +2.98 kcal/mol
DOCKED: USER    (4) Unbound System's Energy  [=(2)] =   -1.74 kcal/mol
DOCKED: USER    
DOCKED: USER    
DOCKED: USER    NEWDPF move ligand.dum.pdbqt
DOCKED: USER    NEWDPF about 1.858000 0.218000 -0.021000
DOCKED: USER    NEWDPF tran0 36.617530 13.597119 123.686659
DOCKED: USER    NEWDPF quaternion0 -0.915833 0.353434 0.133845 -0.135722
DOCKED: USER    NEWDPF axisangle0 -0.924386 0.356734 0.135095 -164.399251
DOCKED: USER    NEWDPF quat0 -0.924386 0.356734 0.135095 -164.399251
DOCKED: USER    NEWDPF dihe0 19.34 -180.00 3.11 -44.54 -166.02 -135.68 178.99 -39.65 -96.62 -154.38 
DOCKED: USER  keepresnum = 1 
DOCKED: USER  
DOCKED: REMARK  Name = 
DOCKED: REMARK  12 active torsions:
DOCKED: REMARK  status: ('A' for Active; 'I' for Inactive)
DOCKED: REMARK    1  A    between atoms: C_2  and  O_3
DOCKED: REMARK    2  A    between atoms: O_3  and  C_4
DOCKED: REMARK    3  A    between atoms: C_4  and  C_5
DOCKED: REMARK    4  A    between atoms: C_10  and  C_11
DOCKED: REMARK    5  A    between atoms: C_11  and  N_12
DOCKED: REMARK    6  A    between atoms: N_12  and  C_13
DOCKED: REMARK    7  A    between atoms: N_12  and  C_15
DOCKED: REMARK    8  A    between atoms: C_13  and  C_14
DOCKED: REMARK    9  A    between atoms: C_15  and  C_16
DOCKED: REMARK   10  A    between atoms: N_21  and  C_22
DOCKED: REMARK   11  A    between atoms: C_25  and  C_26
DOCKED: REMARK   12  A    between atoms: N_27  and  O_28
DOCKED: REMARK                            x       y       z     vdW  Elec       q    Type
DOCKED: REMARK                         _______ _______ _______ _____ _____    ______ ____
DOCKED: USER                              x       y       z     vdW  Elec       q    Type
DOCKED: USER                           _______ _______ _______ _____ _____    ______ ____
DOCKED: ROOT
DOCKED: ATOM      1  C   UNL     1      36.731  14.677 122.451 -0.39 -0.00    +0.000 C 
DOCKED: ENDROOT
DOCKED: BRANCH   1   2
DOCKED: ATOM      2  C   UNL     1      35.880  15.432 123.430 -0.41 -0.00    +0.000 A 
DOCKED: ATOM      3  C   UNL     1      34.702  14.857 123.931 -0.47 -0.00    +0.000 A 
DOCKED: ATOM      4  C   UNL     1      33.887  15.568 124.815 -0.29 -0.00    +0.000 A 
DOCKED: ATOM      5  C   UNL     1      34.233  16.872 125.199 -0.41 -0.00    +0.000 A 
DOCKED: ATOM      6  C   UNL     1      33.419  17.594 126.086 -0.26 -0.00    +0.000 A 
DOCKED: ATOM      7  C   UNL     1      33.768  18.901 126.463 -0.25 -0.00    +0.000 A 
DOCKED: ATOM      8  C   UNL     1      34.938  19.481 125.951 -0.18 -0.00    +0.000 A 
DOCKED: ATOM      9  C   UNL     1      35.753  18.770 125.067 -0.20 -0.00    +0.000 A 
DOCKED: ATOM     10  C   UNL     1      35.410  17.465 124.686 -0.30 -0.00    +0.000 A 
DOCKED: ATOM     11  C   UNL     1      36.223  16.742 123.799 -0.29 -0.00    +0.000 A 
DOCKED: ATOM     12  CM  UNL     1      35.056  16.156 124.310 -0.06 -0.00    +0.000 AC
DOCKED: ATOM     13  CM  UNL     1      34.587  18.181 125.575 -0.33 -0.00    +0.000 AC
DOCKED: BRANCH   7  12
DOCKED: ATOM     14  C   UNL     1      32.910  19.676 127.429 -0.20 -0.00    +0.000 C 
DOCKED: BRANCH  12  13
DOCKED: ATOM     15  N   UNL     1      31.524  19.163 127.403 -0.26 -0.00    +0.000 N 
DOCKED: ATOM     16  H   UNL     1      31.442  18.511 126.624 -0.43 -0.00    +0.000 HD
DOCKED: BRANCH  13  15
DOCKED: ATOM     17  C   UNL     1      30.551  20.246 127.122 -0.33 -0.00    +0.000 C 
DOCKED: ATOM     18  C   UNL     1      29.107  19.757 127.226 -0.55 -0.00    +0.000 C 
DOCKED: ENDBRANCH  13  15
DOCKED: BRANCH  13  17
DOCKED: ATOM     19  C   UNL     1      31.204  18.358 128.608 -0.31 -0.00    +0.000 C 
DOCKED: ATOM     20  C   UNL     1      30.962  16.868 128.325 -0.48 -0.00    +0.000 C 
DOCKED: ENDBRANCH  13  17
DOCKED: ENDBRANCH  12  13
DOCKED: ENDBRANCH   7  12
DOCKED: ENDBRANCH   1   2
DOCKED: BRANCH   1  19
DOCKED: ATOM     21  O   UNL     1      37.250  13.511 123.082 -0.56 -0.00    +0.000 OA
DOCKED: BRANCH  19  21
DOCKED: ATOM     22  O   UNL     1      35.292  12.350 123.457 -0.60 -0.00    +0.000 OA
DOCKED: ATOM     23  C   UNL     1      36.524  12.322 123.184 -0.67 -0.00    +0.000 C 
DOCKED: ATOM     24  N   UNL     1      37.206  11.072 123.018 -0.56 -0.00    +0.000 N 
DOCKED: ATOM     25  H   UNL     1      38.189  11.088 122.964 +0.02 -0.00    +0.000 HD
DOCKED: BRANCH  22  24
DOCKED: ATOM     26  C   UNL     1      36.551   9.796 122.924 -0.60 -0.00    +0.000 A 
DOCKED: ATOM     27  C   UNL     1      35.276   9.718 122.347 -0.57 -0.00    +0.000 A 
DOCKED: ATOM     28  C   UNL     1      34.608   8.494 122.263 -0.60 -0.00    +0.000 A 
DOCKED: ATOM     29  C   UNL     1      35.199   7.321 122.763 -0.64 -0.00    +0.000 A 
DOCKED: ATOM     30  C   UNL     1      36.463   7.406 123.375 -0.64 -0.00    +0.000 A 
DOCKED: ATOM     31  C   UNL     1      37.131   8.631 123.458 -0.35 -0.00    +0.000 A 
DOCKED: ATOM     32  CM  UNL     1      35.871   8.561 122.855 +0.00 -0.00    +0.000 AC
DOCKED: BRANCH  27  30
DOCKED: ATOM     33  C   UNL     1      34.476   6.029 122.671 -0.69 -0.00    +0.000 C 
DOCKED: ATOM     34  N   UNL     1      33.108   5.966 122.249 -0.67 -0.00    +0.000 N 
DOCKED: ATOM     35  O   UNL     1      35.069   4.961 122.984 -0.80 -0.00    +0.000 OA
DOCKED: ATOM     36  H   UNL     1      32.607   6.798 122.084 -0.03 -0.00    +0.000 HD
DOCKED: BRANCH  31  34
DOCKED: ATOM     37  O   UNL     1      32.500   4.768 122.075 -0.85 -0.00    +0.000 OA
DOCKED: ATOM     38  H   UNL     1      33.111   4.057 122.324 -0.19 -0.00    +0.000 HD
DOCKED: ENDBRANCH  31  34
DOCKED: ENDBRANCH  27  30
DOCKED: ENDBRANCH  22  24
DOCKED: ENDBRANCH  19  21
DOCKED: ENDBRANCH   1  19
DOCKED: TORSDOF 10DOCKED: TER
DOCKED: ENDMDL
________________________________________________________________________________


	BEGINNING GENETIC ALGORITHM DOCKING 31 of 100
Run: 31 Seed: 351517580 1915873296 [ Run 31 of 100 GA/GALS ]
Beginning LAMARCKIAN GENETIC ALGORITHM (LGA), with a maximum of 2500000 energy evaluations.

Final-Value: -17.288


	FINAL GENETIC ALGORITHM DOCKED STATE
	_______________________________________________


Detailed state:  trans 35.886 17.159 121.963 quatxyzw -0.808866 -0.124994 -0.502039 -0.279407 center 1.858 0.218 -0.021 ntor 10 119.1437 132.4288 6.5949 179.7613 -18.0042 -22.3766 -169.3323 -21.6945 -124.2544 145.7265
State:	 35.886  17.159 121.963  -0.842 -0.130 -0.523 -147.550    119.14  132.43    6.59  179.76  -18.00  -22.38 -169.33  -21.69 -124.25  145.73

DOCKED: MODEL       31
DOCKED: USER    Run = 31
DOCKED: USER    DPF = ligand_dock.biased.dpf
DOCKED: USER  
DOCKED: USER    Estimated Free Energy of Binding    =  -12.36 kcal/mol  [=(1)+(2)+(3)-(4)]
DOCKED: USER    Estimated Inhibition Constant, Ki   =  866.08 pM (picomolar)  [Temperature = 298.15 K]
DOCKED: USER    
DOCKED: USER    (1) Final Intermolecular Energy     =  -15.35 kcal/mol
DOCKED: USER        vdW + Hbond + desolv Energy     =  -15.35 kcal/mol
DOCKED: USER        Electrostatic Energy            =   +0.00 kcal/mol
DOCKED: USER    (2) Final Total Internal Energy     =   -1.94 kcal/mol
DOCKED: USER    (3) Torsional Free Energy           =   +2.98 kcal/mol
DOCKED: USER    (4) Unbound System's Energy  [=(2)] =   -1.94 kcal/mol
DOCKED: USER    
DOCKED: USER    
DOCKED: USER    NEWDPF move ligand.dum.pdbqt
DOCKED: USER    NEWDPF about 1.858000 0.218000 -0.021000
DOCKED: USER    NEWDPF tran0 35.886499 17.159110 121.962846
DOCKED: USER    NEWDPF quaternion0 -0.808866 -0.124994 -0.502039 -0.279407
DOCKED: USER    NEWDPF axisangle0 -0.842417 -0.130178 -0.522864 -147.550337
DOCKED: USER    NEWDPF quat0 -0.842417 -0.130178 -0.522864 -147.550337
DOCKED: USER    NEWDPF dihe0 119.14 132.43 6.59 179.76 -18.00 -22.38 -169.33 -21.69 -124.25 145.73 
DOCKED: USER  keepresnum = 1 
DOCKED: USER  
DOCKED: REMARK  Name = 
DOCKED: REMARK  12 active torsions:
DOCKED: REMARK  status: ('A' for Active; 'I' for Inactive)
DOCKED: REMARK    1  A    between atoms: C_2  and  O_3
DOCKED: REMARK    2  A    between atoms: O_3  and  C_4
DOCKED: REMARK    3  A    between atoms: C_4  and  C_5
DOCKED: REMARK    4  A    between atoms: C_10  and  C_11
DOCKED: REMARK    5  A    between atoms: C_11  and  N_12
DOCKED: REMARK    6  A    between atoms: N_12  and  C_13
DOCKED: REMARK    7  A    between atoms: N_12  and  C_15
DOCKED: REMARK    8  A    between atoms: C_13  and  C_14
DOCKED: REMARK    9  A    between atoms: C_15  and  C_16
DOCKED: REMARK   10  A    between atoms: N_21  and  C_22
DOCKED: REMARK   11  A    between atoms: C_25  and  C_26
DOCKED: REMARK   12  A    between atoms: N_27  and  O_28
DOCKED: REMARK                            x       y       z     vdW  Elec       q    Type
DOCKED: REMARK                         _______ _______ _______ _____ _____    ______ ____
DOCKED: USER                              x       y       z     vdW  Elec       q    Type
DOCKED: USER                           _______ _______ _______ _____ _____    ______ ____
DOCKED: ROOT
DOCKED: ATOM      1  C   UNL     1      36.609  18.572 121.530 -0.16 -0.00    +0.000 C 
DOCKED: ENDROOT
DOCKED: BRANCH   1   2
DOCKED: ATOM      2  C   UNL     1      35.518  18.468 120.504 -0.21 -0.00    +0.000 A 
DOCKED: ATOM      3  C   UNL     1      35.837  18.291 119.149 -0.13 -0.00    +0.000 A 
DOCKED: ATOM      4  C   UNL     1      34.827  18.228 118.186 -0.13 -0.00    +0.000 A 
DOCKED: ATOM      5  C   UNL     1      33.483  18.357 118.564 -0.20 -0.00    +0.000 A 
DOCKED: ATOM      6  C   UNL     1      32.462  18.297 117.603 -0.16 -0.00    +0.000 A 
DOCKED: ATOM      7  C   UNL     1      31.118  18.431 117.987 -0.23 -0.00    +0.000 A 
DOCKED: ATOM      8  C   UNL     1      30.800  18.622 119.340 -0.43 -0.00    +0.000 A 
DOCKED: ATOM      9  C   UNL     1      31.810  18.684 120.303 -0.42 -0.00    +0.000 A 
DOCKED: ATOM     10  C   UNL     1      33.154  18.552 119.926 -0.34 -0.00    +0.000 A 
DOCKED: ATOM     11  C   UNL     1      34.175  18.613 120.886 -0.23 -0.00    +0.000 A 
DOCKED: ATOM     12  CM  UNL     1      34.499  18.418 119.536 +0.00 -0.00    +0.000 AC
DOCKED: ATOM     13  CM  UNL     1      32.138  18.491 118.954 +0.00 -0.00    +0.000 AC
DOCKED: BRANCH   7  12
DOCKED: ATOM     14  C   UNL     1      30.015  18.349 116.964 -0.17 -0.00    +0.000 C 
DOCKED: BRANCH  12  13
DOCKED: ATOM     15  N   UNL     1      29.580  16.946 116.797 -0.22 -0.00    +0.000 N 
DOCKED: ATOM     16  H   UNL     1      29.329  16.806 115.819 +0.00 -0.00    +0.000 HD
DOCKED: BRANCH  13  15
DOCKED: ATOM     17  C   UNL     1      28.346  16.666 117.570 -0.36 -0.00    +0.000 C 
DOCKED: ATOM     18  C   UNL     1      28.625  16.550 119.067 -0.54 -0.00    +0.000 C 
DOCKED: ENDBRANCH  13  15
DOCKED: BRANCH  13  17
DOCKED: ATOM     19  C   UNL     1      30.684  15.985 117.048 -0.27 -0.00    +0.000 C 
DOCKED: ATOM     20  C   UNL     1      30.450  14.587 116.457 -0.42 -0.00    +0.000 C 
DOCKED: ENDBRANCH  13  17
DOCKED: ENDBRANCH  12  13
DOCKED: ENDBRANCH   7  12
DOCKED: ENDBRANCH   1   2
DOCKED: BRANCH   1  19
DOCKED: ATOM     21  O   UNL     1      36.407  17.582 122.532 -0.21 -0.00    +0.000 OA
DOCKED: BRANCH  19  21
DOCKED: ATOM     22  O   UNL     1      35.945  15.846 121.083 -0.06 -0.00    +0.000 OA
DOCKED: ATOM     23  C   UNL     1      36.296  16.221 122.237 -0.28 -0.00    +0.000 C 
DOCKED: ATOM     24  N   UNL     1      36.543  15.260 123.272 -0.39 -0.00    +0.000 N 
DOCKED: ATOM     25  H   UNL     1      36.658  15.594 124.191 -0.03 -0.00    +0.000 HD
DOCKED: BRANCH  22  24
DOCKED: ATOM     26  C   UNL     1      36.634  13.841 123.058 -0.48 -0.00    +0.000 A 
DOCKED: ATOM     27  C   UNL     1      37.352  13.357 121.956 -0.43 -0.00    +0.000 A 
DOCKED: ATOM     28  C   UNL     1      37.438  11.984 121.713 -0.40 -0.00    +0.000 A 
DOCKED: ATOM     29  C   UNL     1      36.800  11.065 122.563 -0.57 -0.00    +0.000 A 
DOCKED: ATOM     30  C   UNL     1      36.051  11.554 123.649 -0.60 -0.00    +0.000 A 
DOCKED: ATOM     31  C   UNL     1      35.965  12.928 123.892 -0.50 -0.00    +0.000 A 
DOCKED: ATOM     32  CM  UNL     1      36.707  12.455 122.805 +0.00 -0.00    +0.000 AC
DOCKED: BRANCH  27  30
DOCKED: ATOM     33  C   UNL     1      36.897   9.610 122.290 -0.65 -0.00    +0.000 C 
DOCKED: ATOM     34  N   UNL     1      37.082   8.662 123.348 -0.66 -0.00    +0.000 N 
DOCKED: ATOM     35  O   UNL     1      36.830   9.196 121.101 -2.66 -0.00    +0.000 OA
DOCKED: ATOM     36  H   UNL     1      37.221   8.977 124.270 -0.56 -0.00    +0.000 HD
DOCKED: BRANCH  31  34
DOCKED: ATOM     37  O   UNL     1      37.066   7.333 123.085 -2.15 -0.00    +0.000 OA
DOCKED: ATOM     38  H   UNL     1      37.023   7.194 122.127 -0.09 -0.00    +0.000 HD
DOCKED: ENDBRANCH  31  34
DOCKED: ENDBRANCH  27  30
DOCKED: ENDBRANCH  22  24
DOCKED: ENDBRANCH  19  21
DOCKED: ENDBRANCH   1  19
DOCKED: TORSDOF 10DOCKED: TER
DOCKED: ENDMDL
________________________________________________________________________________


	BEGINNING GENETIC ALGORITHM DOCKING 32 of 100
Run: 32 Seed: 1957217058 1875226690 [ Run 32 of 100 GA/GALS ]
Beginning LAMARCKIAN GENETIC ALGORITHM (LGA), with a maximum of 2500000 energy evaluations.

Final-Value: -18.235


	FINAL GENETIC ALGORITHM DOCKED STATE
	_______________________________________________


Detailed state:  trans 35.419 17.042 124.145 quatxyzw 0.041282 -0.848455 -0.477957 -0.223555 center 1.858 0.218 -0.021 ntor 10 -116.6065 36.8605 6.2277 -176.0299 -179.3591 173.7435 92.2692 -128.4035 116.4960 28.5496
State:	 35.419  17.042 124.145   0.042 -0.870 -0.490 -154.164   -116.61   36.86    6.23 -176.03 -179.36  173.74   92.27 -128.40  116.50   28.55

DOCKED: MODEL       32
DOCKED: USER    Run = 32
DOCKED: USER    DPF = ligand_dock.biased.dpf
DOCKED: USER  
DOCKED: USER    Estimated Free Energy of Binding    =  -12.55 kcal/mol  [=(1)+(2)+(3)-(4)]
DOCKED: USER    Estimated Inhibition Constant, Ki   =  634.53 pM (picomolar)  [Temperature = 298.15 K]
DOCKED: USER    
DOCKED: USER    (1) Final Intermolecular Energy     =  -15.53 kcal/mol
DOCKED: USER        vdW + Hbond + desolv Energy     =  -15.53 kcal/mol
DOCKED: USER        Electrostatic Energy            =   +0.00 kcal/mol
DOCKED: USER    (2) Final Total Internal Energy     =   -2.70 kcal/mol
DOCKED: USER    (3) Torsional Free Energy           =   +2.98 kcal/mol
DOCKED: USER    (4) Unbound System's Energy  [=(2)] =   -2.70 kcal/mol
DOCKED: USER    
DOCKED: USER    
DOCKED: USER    NEWDPF move ligand.dum.pdbqt
DOCKED: USER    NEWDPF about 1.858000 0.218000 -0.021000
DOCKED: USER    NEWDPF tran0 35.418915 17.042017 124.145488
DOCKED: USER    NEWDPF quaternion0 0.041282 -0.848455 -0.477957 -0.223555
DOCKED: USER    NEWDPF axisangle0 0.042353 -0.870486 -0.490368 -154.164179
DOCKED: USER    NEWDPF quat0 0.042353 -0.870486 -0.490368 -154.164179
DOCKED: USER    NEWDPF dihe0 -116.61 36.86 6.23 -176.03 -179.36 173.74 92.27 -128.40 116.50 28.55 
DOCKED: USER  keepresnum = 1 
DOCKED: USER  
DOCKED: REMARK  Name = 
DOCKED: REMARK  12 active torsions:
DOCKED: REMARK  status: ('A' for Active; 'I' for Inactive)
DOCKED: REMARK    1  A    between atoms: C_2  and  O_3
DOCKED: REMARK    2  A    between atoms: O_3  and  C_4
DOCKED: REMARK    3  A    between atoms: C_4  and  C_5
DOCKED: REMARK    4  A    between atoms: C_10  and  C_11
DOCKED: REMARK    5  A    between atoms: C_11  and  N_12
DOCKED: REMARK    6  A    between atoms: N_12  and  C_13
DOCKED: REMARK    7  A    between atoms: N_12  and  C_15
DOCKED: REMARK    8  A    between atoms: C_13  and  C_14
DOCKED: REMARK    9  A    between atoms: C_15  and  C_16
DOCKED: REMARK   10  A    between atoms: N_21  and  C_22
DOCKED: REMARK   11  A    between atoms: C_25  and  C_26
DOCKED: REMARK   12  A    between atoms: N_27  and  O_28
DOCKED: REMARK                            x       y       z     vdW  Elec       q    Type
DOCKED: REMARK                         _______ _______ _______ _____ _____    ______ ____
DOCKED: USER                              x       y       z     vdW  Elec       q    Type
DOCKED: USER                           _______ _______ _______ _____ _____    ______ ____
DOCKED: ROOT
DOCKED: ATOM      1  C   UNL     1      34.837  17.920 122.882 -0.35 -0.00    +0.000 C 
DOCKED: ENDROOT
DOCKED: BRANCH   1   2
DOCKED: ATOM      2  C   UNL     1      36.298  17.847 122.547 -0.19 -0.00    +0.000 A 
DOCKED: ATOM      3  C   UNL     1      36.711  17.420 121.276 -0.15 -0.00    +0.000 A 
DOCKED: ATOM      4  C   UNL     1      38.070  17.315 120.971 -0.09 -0.00    +0.000 A 
DOCKED: ATOM      5  C   UNL     1      39.037  17.624 121.939 -0.10 -0.00    +0.000 A 
DOCKED: ATOM      6  C   UNL     1      40.404  17.520 121.641 -0.11 -0.00    +0.000 A 
DOCKED: ATOM      7  C   UNL     1      41.368  17.826 122.616 -0.18 -0.00    +0.000 A 
DOCKED: ATOM      8  C   UNL     1      40.955  18.240 123.892 -0.24 -0.00    +0.000 A 
DOCKED: ATOM      9  C   UNL     1      39.595  18.344 124.197 -0.19 -0.00    +0.000 A 
DOCKED: ATOM     10  C   UNL     1      38.629  18.039 123.228 -0.15 -0.00    +0.000 A 
DOCKED: ATOM     11  C   UNL     1      37.261  18.142 123.525 -0.16 -0.00    +0.000 A 
DOCKED: ATOM     12  CM  UNL     1      37.668  17.731 122.248 +0.00 -0.00    +0.000 AC
DOCKED: ATOM     13  CM  UNL     1      39.998  17.932 122.919 +0.00 -0.00    +0.000 AC
DOCKED: BRANCH   7  12
DOCKED: ATOM     14  C   UNL     1      42.837  17.736 122.299 -0.25 -0.00    +0.000 C 
DOCKED: BRANCH  12  13
DOCKED: ATOM     15  N   UNL     1      43.261  16.320 122.251 -0.37 -0.00    +0.000 N 
DOCKED: ATOM     16  H   UNL     1      44.184  16.251 122.678 -0.04 -0.00    +0.000 HD
DOCKED: BRANCH  13  15
DOCKED: ATOM     17  C   UNL     1      43.431  15.853 120.854 -0.29 -0.00    +0.000 C 
DOCKED: ATOM     18  C   UNL     1      44.288  16.813 120.031 -0.18 -0.00    +0.000 C 
DOCKED: ENDBRANCH  13  15
DOCKED: BRANCH  13  17
DOCKED: ATOM     19  C   UNL     1      42.393  15.449 123.081 -0.35 +0.00    +0.000 C 
DOCKED: ATOM     20  C   UNL     1      41.389  14.608 122.278 -0.43 -0.00    +0.000 C 
DOCKED: ENDBRANCH  13  17
DOCKED: ENDBRANCH  12  13
DOCKED: ENDBRANCH   7  12
DOCKED: ENDBRANCH   1   2
DOCKED: BRANCH   1  19
DOCKED: ATOM     21  O   UNL     1      34.558  17.037 123.963 -0.44 -0.00    +0.000 OA
DOCKED: BRANCH  19  21
DOCKED: ATOM     22  O   UNL     1      33.785  14.877 124.215 -0.65 -0.00    +0.000 OA
DOCKED: ATOM     23  C   UNL     1      34.719  15.652 123.867 -0.57 -0.00    +0.000 C 
DOCKED: ATOM     24  N   UNL     1      35.972  15.126 123.410 -0.45 -0.00    +0.000 N 
DOCKED: ATOM     25  H   UNL     1      36.722  15.754 123.300 -0.01 -0.00    +0.000 HD
DOCKED: BRANCH  22  24
DOCKED: ATOM     26  C   UNL     1      36.207  13.742 123.101 -0.45 -0.00    +0.000 A 
DOCKED: ATOM     27  C   UNL     1      35.937  12.765 124.070 -0.39 -0.00    +0.000 A 
DOCKED: ATOM     28  C   UNL     1      36.177  11.415 123.802 -0.58 -0.00    +0.000 A 
DOCKED: ATOM     29  C   UNL     1      36.700  11.013 122.561 -0.59 -0.00    +0.000 A 
DOCKED: ATOM     30  C   UNL     1      37.003  11.996 121.603 -0.50 -0.00    +0.000 A 
DOCKED: ATOM     31  C   UNL     1      36.763  13.348 121.871 -0.35 -0.00    +0.000 A 
DOCKED: ATOM     32  CM  UNL     1      36.464  12.380 122.835 +0.00 -0.00    +0.000 AC
DOCKED: BRANCH  27  30
DOCKED: ATOM     33  C   UNL     1      36.953   9.576 122.294 -0.64 -0.00    +0.000 C 
DOCKED: ATOM     34  N   UNL     1      37.130   8.637 123.361 -0.65 -0.00    +0.000 N 
DOCKED: ATOM     35  O   UNL     1      37.028   9.170 121.102 -2.72 -0.00    +0.000 OA
DOCKED: ATOM     36  H   UNL     1      37.159   8.953 124.293 -0.55 -0.00    +0.000 HD
DOCKED: BRANCH  31  34
DOCKED: ATOM     37  O   UNL     1      37.259   7.315 123.094 -2.01 -0.00    +0.000 OA
DOCKED: ATOM     38  H   UNL     1      37.308   7.182 122.135 -0.15 -0.00    +0.000 HD
DOCKED: ENDBRANCH  31  34
DOCKED: ENDBRANCH  27  30
DOCKED: ENDBRANCH  22  24
DOCKED: ENDBRANCH  19  21
DOCKED: ENDBRANCH   1  19
DOCKED: TORSDOF 10DOCKED: TER
DOCKED: ENDMDL
________________________________________________________________________________


	BEGINNING GENETIC ALGORITHM DOCKING 33 of 100
Run: 33 Seed: 1150551531 1246867665 [ Run 33 of 100 GA/GALS ]
Beginning LAMARCKIAN GENETIC ALGORITHM (LGA), with a maximum of 2500000 energy evaluations.

Final-Value: -17.451


	FINAL GENETIC ALGORITHM DOCKED STATE
	_______________________________________________


Detailed state:  trans 35.072 16.988 123.063 quatxyzw 0.874635 -0.051012 0.463451 0.132757 center 1.858 0.218 -0.021 ntor 10 -24.5147 156.8892 14.8860 2.7803 -164.5562 -121.1186 113.2687 -166.9329 -81.2517 -87.2259
State:	 35.072  16.988 123.063   0.882 -0.051  0.468 164.742    -24.51  156.89   14.89    2.78 -164.56 -121.12  113.27 -166.93  -81.25  -87.23

DOCKED: MODEL       33
DOCKED: USER    Run = 33
DOCKED: USER    DPF = ligand_dock.biased.dpf
DOCKED: USER  
DOCKED: USER    Estimated Free Energy of Binding    =  -12.45 kcal/mol  [=(1)+(2)+(3)-(4)]
DOCKED: USER    Estimated Inhibition Constant, Ki   =  746.35 pM (picomolar)  [Temperature = 298.15 K]
DOCKED: USER    
DOCKED: USER    (1) Final Intermolecular Energy     =  -15.43 kcal/mol
DOCKED: USER        vdW + Hbond + desolv Energy     =  -15.43 kcal/mol
DOCKED: USER        Electrostatic Energy            =   +0.00 kcal/mol
DOCKED: USER    (2) Final Total Internal Energy     =   -2.02 kcal/mol
DOCKED: USER    (3) Torsional Free Energy           =   +2.98 kcal/mol
DOCKED: USER    (4) Unbound System's Energy  [=(2)] =   -2.02 kcal/mol
DOCKED: USER    
DOCKED: USER    
DOCKED: USER    NEWDPF move ligand.dum.pdbqt
DOCKED: USER    NEWDPF about 1.858000 0.218000 -0.021000
DOCKED: USER    NEWDPF tran0 35.071527 16.988001 123.063085
DOCKED: USER    NEWDPF quaternion0 0.874635 -0.051012 0.463451 0.132757
DOCKED: USER    NEWDPF axisangle0 0.882446 -0.051467 0.467590 164.742148
DOCKED: USER    NEWDPF quat0 0.882446 -0.051467 0.467590 164.742148
DOCKED: USER    NEWDPF dihe0 -24.51 156.89 14.89 2.78 -164.56 -121.12 113.27 -166.93 -81.25 -87.23 
DOCKED: USER  keepresnum = 1 
DOCKED: USER  
DOCKED: REMARK  Name = 
DOCKED: REMARK  12 active torsions:
DOCKED: REMARK  status: ('A' for Active; 'I' for Inactive)
DOCKED: REMARK    1  A    between atoms: C_2  and  O_3
DOCKED: REMARK    2  A    between atoms: O_3  and  C_4
DOCKED: REMARK    3  A    between atoms: C_4  and  C_5
DOCKED: REMARK    4  A    between atoms: C_10  and  C_11
DOCKED: REMARK    5  A    between atoms: C_11  and  N_12
DOCKED: REMARK    6  A    between atoms: N_12  and  C_13
DOCKED: REMARK    7  A    between atoms: N_12  and  C_15
DOCKED: REMARK    8  A    between atoms: C_13  and  C_14
DOCKED: REMARK    9  A    between atoms: C_15  and  C_16
DOCKED: REMARK   10  A    between atoms: N_21  and  C_22
DOCKED: REMARK   11  A    between atoms: C_25  and  C_26
DOCKED: REMARK   12  A    between atoms: N_27  and  O_28
DOCKED: REMARK                            x       y       z     vdW  Elec       q    Type
DOCKED: REMARK                         _______ _______ _______ _____ _____    ______ ____
DOCKED: USER                              x       y       z     vdW  Elec       q    Type
DOCKED: USER                           _______ _______ _______ _____ _____    ______ ____
DOCKED: ROOT
DOCKED: ATOM      1  C   UNL     1      36.197  17.930 122.319 -0.23 -0.00    +0.000 C 
DOCKED: ENDROOT
DOCKED: BRANCH   1   2
DOCKED: ATOM      2  C   UNL     1      34.970  18.234 121.510 -0.28 -0.00    +0.000 A 
DOCKED: ATOM      3  C   UNL     1      33.704  17.842 121.972 -0.29 -0.00    +0.000 A 
DOCKED: ATOM      4  C   UNL     1      32.562  18.091 121.207 -0.06 -0.00    +0.000 A 
DOCKED: ATOM      5  C   UNL     1      32.673  18.723 119.960 -0.36 -0.00    +0.000 A 
DOCKED: ATOM      6  C   UNL     1      31.531  18.975 119.184 -0.39 -0.00    +0.000 A 
DOCKED: ATOM      7  C   UNL     1      31.648  19.604 117.934 -0.19 -0.00    +0.000 A 
DOCKED: ATOM      8  C   UNL     1      32.915  19.983 117.465 -0.12 -0.00    +0.000 A 
DOCKED: ATOM      9  C   UNL     1      34.057  19.735 118.231 -0.15 -0.00    +0.000 A 
DOCKED: ATOM     10  C   UNL     1      33.947  19.106 119.479 -0.23 -0.00    +0.000 A 
DOCKED: ATOM     11  C   UNL     1      35.088  18.853 120.256 -0.21 -0.00    +0.000 A 
DOCKED: ATOM     12  CM  UNL     1      33.824  18.475 120.731 +0.00 -0.00    +0.000 AC
DOCKED: ATOM     13  CM  UNL     1      32.795  19.354 118.708 +0.00 -0.00    +0.000 AC
DOCKED: BRANCH   7  12
DOCKED: ATOM     14  C   UNL     1      30.425  19.896 117.103 -0.12 -0.00    +0.000 C 
DOCKED: BRANCH  12  13
DOCKED: ATOM     15  N   UNL     1      29.243  19.227 117.686 -0.18 -0.00    +0.000 N 
DOCKED: ATOM     16  H   UNL     1      29.316  19.283 118.702 -0.07 -0.00    +0.000 HD
DOCKED: BRANCH  13  15
DOCKED: ATOM     17  C   UNL     1      29.225  17.781 117.366 -0.26 -0.00    +0.000 C 
DOCKED: ATOM     18  C   UNL     1      28.724  16.942 118.540 -0.50 -0.00    +0.000 C 
DOCKED: ENDBRANCH  13  15
DOCKED: BRANCH  13  17
DOCKED: ATOM     19  C   UNL     1      27.981  19.938 117.357 -0.16 -0.00    +0.000 C 
DOCKED: ATOM     20  C   UNL     1      27.013  20.084 118.540 -0.28 -0.00    +0.000 C 
DOCKED: ENDBRANCH  13  17
DOCKED: ENDBRANCH  12  13
DOCKED: ENDBRANCH   7  12
DOCKED: ENDBRANCH   1   2
DOCKED: BRANCH   1  19
DOCKED: ATOM     21  O   UNL     1      35.824  17.185 123.474 -0.30 -0.00    +0.000 OA
DOCKED: BRANCH  19  21
DOCKED: ATOM     22  O   UNL     1      35.397  15.157 124.489 -0.57 -0.00    +0.000 OA
DOCKED: ATOM     23  C   UNL     1      35.942  15.794 123.545 -0.44 -0.00    +0.000 C 
DOCKED: ATOM     24  N   UNL     1      36.724  15.110 122.558 -0.34 -0.00    +0.000 N 
DOCKED: ATOM     25  H   UNL     1      37.259  15.655 121.936 +0.00 -0.00    +0.000 HD
DOCKED: BRANCH  22  24
DOCKED: ATOM     26  C   UNL     1      36.781  13.680 122.416 -0.42 -0.00    +0.000 A 
DOCKED: ATOM     27  C   UNL     1      36.699  12.872 123.558 -0.55 -0.00    +0.000 A 
DOCKED: ATOM     28  C   UNL     1      36.773  11.480 123.449 -0.62 -0.00    +0.000 A 
DOCKED: ATOM     29  C   UNL     1      36.939  10.868 122.195 -0.51 -0.00    +0.000 A 
DOCKED: ATOM     30  C   UNL     1      37.058  11.682 121.054 -0.45 -0.00    +0.000 A 
DOCKED: ATOM     31  C   UNL     1      36.983  13.074 121.163 -0.39 -0.00    +0.000 A 
DOCKED: ATOM     32  CM  UNL     1      36.872  12.276 122.306 +0.00 -0.00    +0.000 AC
DOCKED: BRANCH  27  30
DOCKED: ATOM     33  C   UNL     1      37.021   9.390 122.096 -0.64 -0.00    +0.000 C 
DOCKED: ATOM     34  N   UNL     1      37.086   8.566 123.266 -0.68 -0.00    +0.000 N 
DOCKED: ATOM     35  O   UNL     1      37.047   8.844 120.960 -2.71 -0.00    +0.000 OA
DOCKED: ATOM     36  H   UNL     1      37.152   8.981 124.156 -0.55 -0.00    +0.000 HD
DOCKED: BRANCH  31  34
DOCKED: ATOM     37  O   UNL     1      37.058   7.216 123.153 -2.02 -0.00    +0.000 OA
DOCKED: ATOM     38  H   UNL     1      37.227   6.965 122.232 -0.17 -0.00    +0.000 HD
DOCKED: ENDBRANCH  31  34
DOCKED: ENDBRANCH  27  30
DOCKED: ENDBRANCH  22  24
DOCKED: ENDBRANCH  19  21
DOCKED: ENDBRANCH   1  19
DOCKED: TORSDOF 10DOCKED: TER
DOCKED: ENDMDL
________________________________________________________________________________


	BEGINNING GENETIC ALGORITHM DOCKING 34 of 100
Run: 34 Seed: 1567586014 215360134 [ Run 34 of 100 GA/GALS ]
Beginning LAMARCKIAN GENETIC ALGORITHM (LGA), with a maximum of 2500000 energy evaluations.

Final-Value: -17.960


	FINAL GENETIC ALGORITHM DOCKED STATE
	_______________________________________________


Detailed state:  trans 37.591 17.172 123.133 quatxyzw -0.930833 0.106521 0.342964 -0.067666 center 1.858 0.218 -0.021 ntor 10 -128.6226 104.4752 15.0120 -171.4866 179.8973 -21.0829 -102.2558 153.1798 -79.3600 5.7536
State:	 37.591  17.172 123.133  -0.933  0.107  0.344 -172.240   -128.62  104.48   15.01 -171.49  179.90  -21.08 -102.26  153.18  -79.36    5.75

DOCKED: MODEL       34
DOCKED: USER    Run = 34
DOCKED: USER    DPF = ligand_dock.biased.dpf
DOCKED: USER  
DOCKED: USER    Estimated Free Energy of Binding    =  -12.73 kcal/mol  [=(1)+(2)+(3)-(4)]
DOCKED: USER    Estimated Inhibition Constant, Ki   =  465.25 pM (picomolar)  [Temperature = 298.15 K]
DOCKED: USER    
DOCKED: USER    (1) Final Intermolecular Energy     =  -15.71 kcal/mol
DOCKED: USER        vdW + Hbond + desolv Energy     =  -15.71 kcal/mol
DOCKED: USER        Electrostatic Energy            =   +0.00 kcal/mol
DOCKED: USER    (2) Final Total Internal Energy     =   -2.25 kcal/mol
DOCKED: USER    (3) Torsional Free Energy           =   +2.98 kcal/mol
DOCKED: USER    (4) Unbound System's Energy  [=(2)] =   -2.25 kcal/mol
DOCKED: USER    
DOCKED: USER    
DOCKED: USER    NEWDPF move ligand.dum.pdbqt
DOCKED: USER    NEWDPF about 1.858000 0.218000 -0.021000
DOCKED: USER    NEWDPF tran0 37.590789 17.171853 123.132791
DOCKED: USER    NEWDPF quaternion0 -0.930833 0.106521 0.342964 -0.067666
DOCKED: USER    NEWDPF axisangle0 -0.932972 0.106766 0.343752 -172.240175
DOCKED: USER    NEWDPF quat0 -0.932972 0.106766 0.343752 -172.240175
DOCKED: USER    NEWDPF dihe0 -128.62 104.48 15.01 -171.49 179.90 -21.08 -102.26 153.18 -79.36 5.75 
DOCKED: USER  keepresnum = 1 
DOCKED: USER  
DOCKED: REMARK  Name = 
DOCKED: REMARK  12 active torsions:
DOCKED: REMARK  status: ('A' for Active; 'I' for Inactive)
DOCKED: REMARK    1  A    between atoms: C_2  and  O_3
DOCKED: REMARK    2  A    between atoms: O_3  and  C_4
DOCKED: REMARK    3  A    between atoms: C_4  and  C_5
DOCKED: REMARK    4  A    between atoms: C_10  and  C_11
DOCKED: REMARK    5  A    between atoms: C_11  and  N_12
DOCKED: REMARK    6  A    between atoms: N_12  and  C_13
DOCKED: REMARK    7  A    between atoms: N_12  and  C_15
DOCKED: REMARK    8  A    between atoms: C_13  and  C_14
DOCKED: REMARK    9  A    between atoms: C_15  and  C_16
DOCKED: REMARK   10  A    between atoms: N_21  and  C_22
DOCKED: REMARK   11  A    between atoms: C_25  and  C_26
DOCKED: REMARK   12  A    between atoms: N_27  and  O_28
DOCKED: REMARK                            x       y       z     vdW  Elec       q    Type
DOCKED: REMARK                         _______ _______ _______ _____ _____    ______ ____
DOCKED: USER                              x       y       z     vdW  Elec       q    Type
DOCKED: USER                           _______ _______ _______ _____ _____    ______ ____
DOCKED: ROOT
DOCKED: ATOM      1  C   UNL     1      36.699  18.131 122.137 -0.17 -0.00    +0.000 C 
DOCKED: ENDROOT
DOCKED: BRANCH   1   2
DOCKED: ATOM      2  C   UNL     1      36.010  18.344 123.453 -0.21 -0.00    +0.000 A 
DOCKED: ATOM      3  C   UNL     1      36.182  19.548 124.153 -0.17 -0.00    +0.000 A 
DOCKED: ATOM      4  C   UNL     1      35.572  19.738 125.396 -0.16 -0.00    +0.000 A 
DOCKED: ATOM      5  C   UNL     1      34.792  18.719 125.962 -0.23 -0.00    +0.000 A 
DOCKED: ATOM      6  C   UNL     1      34.176  18.901 127.210 -0.18 -0.00    +0.000 A 
DOCKED: ATOM      7  C   UNL     1      33.400  17.876 127.774 -0.25 -0.00    +0.000 A 
DOCKED: ATOM      8  C   UNL     1      33.240  16.666 127.080 -0.38 -0.00    +0.000 A 
DOCKED: ATOM      9  C   UNL     1      33.850  16.477 125.838 -0.35 -0.00    +0.000 A 
DOCKED: ATOM     10  C   UNL     1      34.627  17.496 125.269 -0.35 -0.00    +0.000 A 
DOCKED: ATOM     11  C   UNL     1      35.243  17.315 124.022 -0.33 -0.00    +0.000 A 
DOCKED: ATOM     12  CM  UNL     1      35.404  18.527 124.709 -0.25 -0.00    +0.000 AC
DOCKED: ATOM     13  CM  UNL     1      34.014  17.689 126.522 -0.06 -0.00    +0.000 AC
DOCKED: BRANCH   7  12
DOCKED: ATOM     14  C   UNL     1      32.721  18.070 129.104 -0.21 -0.00    +0.000 C 
DOCKED: BRANCH  12  13
DOCKED: ATOM     15  N   UNL     1      31.365  18.625 128.907 -0.22 -0.00    +0.000 N 
DOCKED: ATOM     16  H   UNL     1      31.222  19.364 129.594 +0.01 -0.00    +0.000 HD
DOCKED: BRANCH  13  15
DOCKED: ATOM     17  C   UNL     1      30.319  17.612 129.184 -0.45 -0.00    +0.000 C 
DOCKED: ATOM     18  C   UNL     1      30.692  16.714 130.362 -0.28 -0.00    +0.000 C 
DOCKED: ENDBRANCH  13  15
DOCKED: BRANCH  13  17
DOCKED: ATOM     19  C   UNL     1      31.224  19.299 127.591 -0.29 -0.00    +0.000 C 
DOCKED: ATOM     20  C   UNL     1      29.786  19.708 127.242 -0.46 -0.00    +0.000 C 
DOCKED: ENDBRANCH  13  17
DOCKED: ENDBRANCH  12  13
DOCKED: ENDBRANCH   7  12
DOCKED: ENDBRANCH   1   2
DOCKED: BRANCH   1  19
DOCKED: ATOM     21  O   UNL     1      37.914  17.420 122.353 -0.15 -0.00    +0.000 OA
DOCKED: BRANCH  19  21
DOCKED: ATOM     22  O   UNL     1      39.154  15.551 121.812 -0.29 -0.00    +0.000 OA
DOCKED: ATOM     23  C   UNL     1      38.036  16.047 122.123 -0.26 -0.00    +0.000 C 
DOCKED: ATOM     24  N   UNL     1      36.867  15.221 122.203 -0.30 -0.00    +0.000 N 
DOCKED: ATOM     25  H   UNL     1      35.994  15.667 122.292 -0.01 -0.00    +0.000 HD
DOCKED: BRANCH  22  24
DOCKED: ATOM     26  C   UNL     1      36.885  13.784 122.163 -0.38 -0.00    +0.000 A 
DOCKED: ATOM     27  C   UNL     1      36.574  13.060 123.322 -0.55 -0.00    +0.000 A 
DOCKED: ATOM     28  C   UNL     1      36.605  11.663 123.316 -0.62 -0.00    +0.000 A 
DOCKED: ATOM     29  C   UNL     1      36.957  10.960 122.151 -0.50 -0.00    +0.000 A 
DOCKED: ATOM     30  C   UNL     1      37.304  11.688 120.999 -0.42 -0.00    +0.000 A 
DOCKED: ATOM     31  C   UNL     1      37.272  13.086 121.005 -0.42 -0.00    +0.000 A 
DOCKED: ATOM     32  CM  UNL     1      36.933  12.373 122.160 +0.00 -0.00    +0.000 AC
DOCKED: BRANCH  27  30
DOCKED: ATOM     33  C   UNL     1      36.990   9.477 122.161 -0.64 -0.00    +0.000 C 
DOCKED: ATOM     34  N   UNL     1      37.149   8.741 123.380 -0.62 -0.00    +0.000 N 
DOCKED: ATOM     35  O   UNL     1      36.890   8.846 121.074 -2.66 -0.00    +0.000 OA
DOCKED: ATOM     36  H   UNL     1      37.313   9.220 124.224 -0.61 -0.00    +0.000 HD
DOCKED: BRANCH  31  34
DOCKED: ATOM     37  O   UNL     1      37.074   7.388 123.377 -2.13 -0.00    +0.000 OA
DOCKED: ATOM     38  H   UNL     1      37.147   7.063 122.466 -0.13 -0.00    +0.000 HD
DOCKED: ENDBRANCH  31  34
DOCKED: ENDBRANCH  27  30
DOCKED: ENDBRANCH  22  24
DOCKED: ENDBRANCH  19  21
DOCKED: ENDBRANCH   1  19
DOCKED: TORSDOF 10DOCKED: TER
DOCKED: ENDMDL
________________________________________________________________________________


	BEGINNING GENETIC ALGORITHM DOCKING 35 of 100
Run: 35 Seed: 316823507 841861692 [ Run 35 of 100 GA/GALS ]
Beginning LAMARCKIAN GENETIC ALGORITHM (LGA), with a maximum of 2500000 energy evaluations.

Final-Value: -17.009


	FINAL GENETIC ALGORITHM DOCKED STATE
	_______________________________________________


Detailed state:  trans 37.804 17.105 122.014 quatxyzw 0.919638 -0.040758 0.363718 0.142527 center 1.858 0.218 -0.021 ntor 10 -56.7620 179.9916 0.9174 0.9708 -178.3844 -25.2978 -146.6482 116.3068 -90.2663 95.7258
State:	 37.804  17.105 122.014   0.929 -0.041  0.367 163.612    -56.76  179.99    0.92    0.97 -178.38  -25.30 -146.65  116.31  -90.27   95.73

DOCKED: MODEL       35
DOCKED: USER    Run = 35
DOCKED: USER    DPF = ligand_dock.biased.dpf
DOCKED: USER  
DOCKED: USER    Estimated Free Energy of Binding    =  -11.63 kcal/mol  [=(1)+(2)+(3)-(4)]
DOCKED: USER    Estimated Inhibition Constant, Ki   =    2.99 nM (nanomolar)  [Temperature = 298.15 K]
DOCKED: USER    
DOCKED: USER    (1) Final Intermolecular Energy     =  -14.61 kcal/mol
DOCKED: USER        vdW + Hbond + desolv Energy     =  -14.61 kcal/mol
DOCKED: USER        Electrostatic Energy            =   +0.00 kcal/mol
DOCKED: USER    (2) Final Total Internal Energy     =   -2.40 kcal/mol
DOCKED: USER    (3) Torsional Free Energy           =   +2.98 kcal/mol
DOCKED: USER    (4) Unbound System's Energy  [=(2)] =   -2.40 kcal/mol
DOCKED: USER    
DOCKED: USER    
DOCKED: USER    NEWDPF move ligand.dum.pdbqt
DOCKED: USER    NEWDPF about 1.858000 0.218000 -0.021000
DOCKED: USER    NEWDPF tran0 37.804275 17.105038 122.014089
DOCKED: USER    NEWDPF quaternion0 0.919638 -0.040758 0.363718 0.142527
DOCKED: USER    NEWDPF axisangle0 0.929124 -0.041178 0.367469 163.611855
DOCKED: USER    NEWDPF quat0 0.929124 -0.041178 0.367469 163.611855
DOCKED: USER    NEWDPF dihe0 -56.76 179.99 0.92 0.97 -178.38 -25.30 -146.65 116.31 -90.27 95.73 
DOCKED: USER  keepresnum = 1 
DOCKED: USER  
DOCKED: REMARK  Name = 
DOCKED: REMARK  12 active torsions:
DOCKED: REMARK  status: ('A' for Active; 'I' for Inactive)
DOCKED: REMARK    1  A    between atoms: C_2  and  O_3
DOCKED: REMARK    2  A    between atoms: O_3  and  C_4
DOCKED: REMARK    3  A    between atoms: C_4  and  C_5
DOCKED: REMARK    4  A    between atoms: C_10  and  C_11
DOCKED: REMARK    5  A    between atoms: C_11  and  N_12
DOCKED: REMARK    6  A    between atoms: N_12  and  C_13
DOCKED: REMARK    7  A    between atoms: N_12  and  C_15
DOCKED: REMARK    8  A    between atoms: C_13  and  C_14
DOCKED: REMARK    9  A    between atoms: C_15  and  C_16
DOCKED: REMARK   10  A    between atoms: N_21  and  C_22
DOCKED: REMARK   11  A    between atoms: C_25  and  C_26
DOCKED: REMARK   12  A    between atoms: N_27  and  O_28
DOCKED: REMARK                            x       y       z     vdW  Elec       q    Type
DOCKED: REMARK                         _______ _______ _______ _____ _____    ______ ____
DOCKED: USER                              x       y       z     vdW  Elec       q    Type
DOCKED: USER                           _______ _______ _______ _____ _____    ______ ____
DOCKED: ROOT
DOCKED: ATOM      1  C   UNL     1      38.691  18.111 121.061 -0.07 -0.00    +0.000 C 
DOCKED: ENDROOT
DOCKED: BRANCH   1   2
DOCKED: ATOM      2  C   UNL     1      37.306  18.342 120.532 -0.08 -0.00    +0.000 A 
DOCKED: ATOM      3  C   UNL     1      37.119  18.970 119.291 -0.06 -0.00    +0.000 A 
DOCKED: ATOM      4  C   UNL     1      35.832  19.221 118.810 -0.11 -0.00    +0.000 A 
DOCKED: ATOM      5  C   UNL     1      34.711  18.859 119.572 -0.21 -0.00    +0.000 A 
DOCKED: ATOM      6  C   UNL     1      33.414  19.108 119.098 -0.25 -0.00    +0.000 A 
DOCKED: ATOM      7  C   UNL     1      32.296  18.747 119.867 -0.40 -0.00    +0.000 A 
DOCKED: ATOM      8  C   UNL     1      32.483  18.132 121.115 -0.07 -0.00    +0.000 A 
DOCKED: ATOM      9  C   UNL     1      33.771  17.882 121.595 -0.31 -0.00    +0.000 A 
DOCKED: ATOM     10  C   UNL     1      34.891  18.240 120.832 -0.27 -0.00    +0.000 A 
DOCKED: ATOM     11  C   UNL     1      36.188  17.992 121.306 -0.18 -0.00    +0.000 A 
DOCKED: ATOM     12  CM  UNL     1      36.008  18.604 120.058 +0.00 -0.00    +0.000 AC
DOCKED: ATOM     13  CM  UNL     1      33.594  18.495 120.347 +0.00 -0.00    +0.000 AC
DOCKED: BRANCH   7  12
DOCKED: ATOM     14  C   UNL     1      30.900  18.994 119.357 -0.47 -0.00    +0.000 C 
DOCKED: BRANCH  12  13
DOCKED: ATOM     15  N   UNL     1      30.461  17.863 118.511 -0.33 -0.00    +0.000 N 
DOCKED: ATOM     16  H   UNL     1      30.840  17.005 118.909 -0.02 -0.00    +0.000 HD
DOCKED: BRANCH  13  15
DOCKED: ATOM     17  C   UNL     1      31.029  17.956 117.145 -0.19 -0.00    +0.000 C 
DOCKED: ATOM     18  C   UNL     1      32.090  16.885 116.895 -0.19 -0.00    +0.000 C 
DOCKED: ENDBRANCH  13  15
DOCKED: BRANCH  13  17
DOCKED: ATOM     19  C   UNL     1      28.988  17.680 118.545 -0.42 -0.00    +0.000 C 
DOCKED: ATOM     20  C   UNL     1      28.529  16.378 119.216 -0.51 -0.00    +0.000 C 
DOCKED: ENDBRANCH  13  17
DOCKED: ENDBRANCH  12  13
DOCKED: ENDBRANCH   7  12
DOCKED: ENDBRANCH   1   2
DOCKED: BRANCH   1  19
DOCKED: ATOM     21  O   UNL     1      38.614  17.345 122.259 -0.15 -0.00    +0.000 OA
DOCKED: BRANCH  19  21
DOCKED: ATOM     22  O   UNL     1      39.601  15.333 122.806 -0.43 -0.00    +0.000 OA
DOCKED: ATOM     23  C   UNL     1      38.641  15.949 122.265 -0.28 -0.00    +0.000 C 
DOCKED: ATOM     24  N   UNL     1      37.587  15.229 121.612 -0.25 -0.00    +0.000 N 
DOCKED: ATOM     25  H   UNL     1      36.946  15.743 121.070 -0.00 -0.00    +0.000 HD
DOCKED: BRANCH  22  24
DOCKED: ATOM     26  C   UNL     1      37.403  13.805 121.696 -0.39 -0.00    +0.000 A 
DOCKED: ATOM     27  C   UNL     1      37.069  13.227 122.929 -0.51 -0.00    +0.000 A 
DOCKED: ATOM     28  C   UNL     1      36.906  11.843 123.043 -0.59 -0.00    +0.000 A 
DOCKED: ATOM     29  C   UNL     1      37.082  11.008 121.927 -0.44 -0.00    +0.000 A 
DOCKED: ATOM     30  C   UNL     1      37.452  11.586 120.699 -0.41 -0.00    +0.000 A 
DOCKED: ATOM     31  C   UNL     1      37.615  12.970 120.585 -0.44 -0.00    +0.000 A 
DOCKED: ATOM     32  CM  UNL     1      37.255  12.406 121.813 +0.00 -0.00    +0.000 AC
DOCKED: BRANCH  27  30
DOCKED: ATOM     33  C   UNL     1      36.910   9.541 122.064 -0.65 -0.00    +0.000 C 
DOCKED: ATOM     34  N   UNL     1      37.008   8.893 123.338 -0.63 -0.00    +0.000 N 
DOCKED: ATOM     35  O   UNL     1      36.687   8.843 121.038 -2.61 -0.00    +0.000 OA
DOCKED: ATOM     36  H   UNL     1      37.265   9.412 124.134 -0.58 -0.00    +0.000 HD
DOCKED: BRANCH  31  34
DOCKED: ATOM     37  O   UNL     1      36.746   7.569 123.453 -2.09 -0.00    +0.000 OA
DOCKED: ATOM     38  H   UNL     1      36.523   7.206 122.582 -0.03 -0.00    +0.000 HD
DOCKED: ENDBRANCH  31  34
DOCKED: ENDBRANCH  27  30
DOCKED: ENDBRANCH  22  24
DOCKED: ENDBRANCH  19  21
DOCKED: ENDBRANCH   1  19
DOCKED: TORSDOF 10DOCKED: TER
DOCKED: ENDMDL
________________________________________________________________________________


	BEGINNING GENETIC ALGORITHM DOCKING 36 of 100
Run: 36 Seed: 1811352460 674579113 [ Run 36 of 100 GA/GALS ]
Beginning LAMARCKIAN GENETIC ALGORITHM (LGA), with a maximum of 2500000 energy evaluations.

Final-Value: -17.482


	FINAL GENETIC ALGORITHM DOCKED STATE
	_______________________________________________


Detailed state:  trans 35.444 16.853 122.553 quatxyzw -0.599486 -0.368576 -0.697129 -0.137039 center 1.858 0.218 -0.021 ntor 10 53.7665 169.1861 14.2515 -76.2840 -171.5959 -17.4545 67.0389 -133.2824 -141.5922 164.8982
State:	 35.444  16.853 122.553  -0.605 -0.372 -0.704 -164.247     53.77  169.19   14.25  -76.28 -171.60  -17.45   67.04 -133.28 -141.59  164.90

DOCKED: MODEL       36
DOCKED: USER    Run = 36
DOCKED: USER    DPF = ligand_dock.biased.dpf
DOCKED: USER  
DOCKED: USER    Estimated Free Energy of Binding    =  -11.85 kcal/mol  [=(1)+(2)+(3)-(4)]
DOCKED: USER    Estimated Inhibition Constant, Ki   =    2.06 nM (nanomolar)  [Temperature = 298.15 K]
DOCKED: USER    
DOCKED: USER    (1) Final Intermolecular Energy     =  -14.83 kcal/mol
DOCKED: USER        vdW + Hbond + desolv Energy     =  -14.83 kcal/mol
DOCKED: USER        Electrostatic Energy            =   +0.00 kcal/mol
DOCKED: USER    (2) Final Total Internal Energy     =   -2.65 kcal/mol
DOCKED: USER    (3) Torsional Free Energy           =   +2.98 kcal/mol
DOCKED: USER    (4) Unbound System's Energy  [=(2)] =   -2.65 kcal/mol
DOCKED: USER    
DOCKED: USER    
DOCKED: USER    NEWDPF move ligand.dum.pdbqt
DOCKED: USER    NEWDPF about 1.858000 0.218000 -0.021000
DOCKED: USER    NEWDPF tran0 35.444203 16.853444 122.552516
DOCKED: USER    NEWDPF quaternion0 -0.599486 -0.368576 -0.697129 -0.137039
DOCKED: USER    NEWDPF axisangle0 -0.605195 -0.372086 -0.703769 -164.246884
DOCKED: USER    NEWDPF quat0 -0.605195 -0.372086 -0.703769 -164.246884
DOCKED: USER    NEWDPF dihe0 53.77 169.19 14.25 -76.28 -171.60 -17.45 67.04 -133.28 -141.59 164.90 
DOCKED: USER  keepresnum = 1 
DOCKED: USER  
DOCKED: REMARK  Name = 
DOCKED: REMARK  12 active torsions:
DOCKED: REMARK  status: ('A' for Active; 'I' for Inactive)
DOCKED: REMARK    1  A    between atoms: C_2  and  O_3
DOCKED: REMARK    2  A    between atoms: O_3  and  C_4
DOCKED: REMARK    3  A    between atoms: C_4  and  C_5
DOCKED: REMARK    4  A    between atoms: C_10  and  C_11
DOCKED: REMARK    5  A    between atoms: C_11  and  N_12
DOCKED: REMARK    6  A    between atoms: N_12  and  C_13
DOCKED: REMARK    7  A    between atoms: N_12  and  C_15
DOCKED: REMARK    8  A    between atoms: C_13  and  C_14
DOCKED: REMARK    9  A    between atoms: C_15  and  C_16
DOCKED: REMARK   10  A    between atoms: N_21  and  C_22
DOCKED: REMARK   11  A    between atoms: C_25  and  C_26
DOCKED: REMARK   12  A    between atoms: N_27  and  O_28
DOCKED: REMARK                            x       y       z     vdW  Elec       q    Type
DOCKED: REMARK                         _______ _______ _______ _____ _____    ______ ____
DOCKED: USER                              x       y       z     vdW  Elec       q    Type
DOCKED: USER                           _______ _______ _______ _____ _____    ______ ____
DOCKED: ROOT
DOCKED: ATOM      1  C   UNL     1      36.168  18.286 122.190 -0.22 -0.00    +0.000 C 
DOCKED: ENDROOT
DOCKED: BRANCH   1   2
DOCKED: ATOM      2  C   UNL     1      36.059  17.654 120.833 -0.18 -0.00    +0.000 A 
DOCKED: ATOM      3  C   UNL     1      37.137  16.930 120.302 -0.13 -0.00    +0.000 A 
DOCKED: ATOM      4  C   UNL     1      37.055  16.370 119.025 -0.13 -0.00    +0.000 A 
DOCKED: ATOM      5  C   UNL     1      35.895  16.538 118.255 -0.14 -0.00    +0.000 A 
DOCKED: ATOM      6  C   UNL     1      35.804  15.980 116.970 -0.15 -0.00    +0.000 A 
DOCKED: ATOM      7  C   UNL     1      34.642  16.155 116.201 -0.13 -0.00    +0.000 A 
DOCKED: ATOM      8  C   UNL     1      33.568  16.891 116.727 -0.13 -0.00    +0.000 A 
DOCKED: ATOM      9  C   UNL     1      33.652  17.451 118.004 -0.09 -0.00    +0.000 A 
DOCKED: ATOM     10  C   UNL     1      34.809  17.280 118.776 -0.02 -0.00    +0.000 A 
DOCKED: ATOM     11  C   UNL     1      34.902  17.839 120.060 -0.21 -0.00    +0.000 A 
DOCKED: ATOM     12  CM  UNL     1      35.976  17.102 119.542 +0.00 -0.00    +0.000 AC
DOCKED: ATOM     13  CM  UNL     1      34.728  16.716 117.489 +0.00 -0.00    +0.000 AC
DOCKED: BRANCH   7  12
DOCKED: ATOM     14  C   UNL     1      34.528  15.543 114.830 -0.14 -0.00    +0.000 C 
DOCKED: BRANCH  12  13
DOCKED: ATOM     15  N   UNL     1      33.863  14.226 114.914 -0.24 -0.00    +0.000 N 
DOCKED: ATOM     16  H   UNL     1      34.225  13.740 115.734 -0.02 -0.00    +0.000 HD
DOCKED: BRANCH  13  15
DOCKED: ATOM     17  C   UNL     1      34.209  13.369 113.755 -0.30 -0.00    +0.000 C 
DOCKED: ATOM     18  C   UNL     1      33.003  12.577 113.251 -0.44 -0.00    +0.000 C 
DOCKED: ENDBRANCH  13  15
DOCKED: BRANCH  13  17
DOCKED: ATOM     19  C   UNL     1      32.404  14.353 115.161 -0.32 -0.00    +0.000 C 
DOCKED: ATOM     20  C   UNL     1      31.908  13.602 116.406 -0.49 -0.00    +0.000 C 
DOCKED: ENDBRANCH  13  17
DOCKED: ENDBRANCH  12  13
DOCKED: ENDBRANCH   7  12
DOCKED: ENDBRANCH   1   2
DOCKED: BRANCH   1  19
DOCKED: ATOM     21  O   UNL     1      35.416  17.520 123.126 -0.30 -0.00    +0.000 OA
DOCKED: BRANCH  19  21
DOCKED: ATOM     22  O   UNL     1      34.262  15.524 123.213 -0.51 -0.00    +0.000 OA
DOCKED: ATOM     23  C   UNL     1      35.366  16.124 123.092 -0.41 -0.00    +0.000 C 
DOCKED: ATOM     24  N   UNL     1      36.587  15.386 122.961 -0.36 -0.00    +0.000 N 
DOCKED: ATOM     25  H   UNL     1      37.435  15.883 123.028 -0.01 -0.00    +0.000 HD
DOCKED: BRANCH  22  24
DOCKED: ATOM     26  C   UNL     1      36.658  13.967 122.738 -0.43 -0.00    +0.000 A 
DOCKED: ATOM     27  C   UNL     1      36.506  13.093 123.822 -0.51 -0.00    +0.000 A 
DOCKED: ATOM     28  C   UNL     1      36.593  11.710 123.637 -0.62 -0.00    +0.000 A 
DOCKED: ATOM     29  C   UNL     1      36.842  11.173 122.362 -0.55 -0.00    +0.000 A 
DOCKED: ATOM     30  C   UNL     1      37.029  12.053 121.281 -0.48 -0.00    +0.000 A 
DOCKED: ATOM     31  C   UNL     1      36.942  13.437 121.467 -0.33 -0.00    +0.000 A 
DOCKED: ATOM     32  CM  UNL     1      36.762  12.572 122.552 +0.00 -0.00    +0.000 AC
DOCKED: BRANCH  27  30
DOCKED: ATOM     33  C   UNL     1      36.935   9.704 122.181 -0.63 -0.00    +0.000 C 
DOCKED: ATOM     34  N   UNL     1      37.079   8.821 123.301 -0.64 -0.00    +0.000 N 
DOCKED: ATOM     35  O   UNL     1      36.902   9.218 121.018 -2.68 -0.00    +0.000 OA
DOCKED: ATOM     36  H   UNL     1      37.191   9.191 124.206 -0.59 -0.00    +0.000 HD
DOCKED: BRANCH  31  34
DOCKED: ATOM     37  O   UNL     1      37.060   7.479 123.119 -2.23 -0.00    +0.000 OA
DOCKED: ATOM     38  H   UNL     1      37.168   7.278 122.176 -0.10 -0.00    +0.000 HD
DOCKED: ENDBRANCH  31  34
DOCKED: ENDBRANCH  27  30
DOCKED: ENDBRANCH  22  24
DOCKED: ENDBRANCH  19  21
DOCKED: ENDBRANCH   1  19
DOCKED: TORSDOF 10DOCKED: TER
DOCKED: ENDMDL
________________________________________________________________________________


	BEGINNING GENETIC ALGORITHM DOCKING 37 of 100
Run: 37 Seed: 1284422289 354154794 [ Run 37 of 100 GA/GALS ]
Beginning LAMARCKIAN GENETIC ALGORITHM (LGA), with a maximum of 2500000 energy evaluations.

Final-Value: -17.387


	FINAL GENETIC ALGORITHM DOCKED STATE
	_______________________________________________


Detailed state:  trans 36.221 17.835 122.918 quatxyzw -0.295810 0.419904 -0.108320 -0.851143 center 1.858 0.218 -0.021 ntor 10 97.2233 180.0000 14.6962 3.6618 180.0000 -90.0840 -88.8338 -95.1274 70.5381 169.1003
State:	 36.221  17.835 122.918  -0.564  0.800 -0.206 -63.328     97.22  180.00   14.70    3.66  180.00  -90.08  -88.83  -95.13   70.54  169.10

DOCKED: MODEL       37
DOCKED: USER    Run = 37
DOCKED: USER    DPF = ligand_dock.biased.dpf
DOCKED: USER  
DOCKED: USER    Estimated Free Energy of Binding    =  -12.45 kcal/mol  [=(1)+(2)+(3)-(4)]
DOCKED: USER    Estimated Inhibition Constant, Ki   =  754.20 pM (picomolar)  [Temperature = 298.15 K]
DOCKED: USER    
DOCKED: USER    (1) Final Intermolecular Energy     =  -15.43 kcal/mol
DOCKED: USER        vdW + Hbond + desolv Energy     =  -15.43 kcal/mol
DOCKED: USER        Electrostatic Energy            =   +0.00 kcal/mol
DOCKED: USER    (2) Final Total Internal Energy     =   -1.96 kcal/mol
DOCKED: USER    (3) Torsional Free Energy           =   +2.98 kcal/mol
DOCKED: USER    (4) Unbound System's Energy  [=(2)] =   -1.96 kcal/mol
DOCKED: USER    
DOCKED: USER    
DOCKED: USER    NEWDPF move ligand.dum.pdbqt
DOCKED: USER    NEWDPF about 1.858000 0.218000 -0.021000
DOCKED: USER    NEWDPF tran0 36.221381 17.834959 122.918413
DOCKED: USER    NEWDPF quaternion0 -0.295810 0.419904 -0.108320 -0.851143
DOCKED: USER    NEWDPF axisangle0 -0.563518 0.799917 -0.206350 -63.327667
DOCKED: USER    NEWDPF quat0 -0.563518 0.799917 -0.206350 -63.327667
DOCKED: USER    NEWDPF dihe0 97.22 180.00 14.70 3.66 180.00 -90.08 -88.83 -95.13 70.54 169.10 
DOCKED: USER  keepresnum = 1 
DOCKED: USER  
DOCKED: REMARK  Name = 
DOCKED: REMARK  12 active torsions:
DOCKED: REMARK  status: ('A' for Active; 'I' for Inactive)
DOCKED: REMARK    1  A    between atoms: C_2  and  O_3
DOCKED: REMARK    2  A    between atoms: O_3  and  C_4
DOCKED: REMARK    3  A    between atoms: C_4  and  C_5
DOCKED: REMARK    4  A    between atoms: C_10  and  C_11
DOCKED: REMARK    5  A    between atoms: C_11  and  N_12
DOCKED: REMARK    6  A    between atoms: N_12  and  C_13
DOCKED: REMARK    7  A    between atoms: N_12  and  C_15
DOCKED: REMARK    8  A    between atoms: C_13  and  C_14
DOCKED: REMARK    9  A    between atoms: C_15  and  C_16
DOCKED: REMARK   10  A    between atoms: N_21  and  C_22
DOCKED: REMARK   11  A    between atoms: C_25  and  C_26
DOCKED: REMARK   12  A    between atoms: N_27  and  O_28
DOCKED: REMARK                            x       y       z     vdW  Elec       q    Type
DOCKED: REMARK                         _______ _______ _______ _____ _____    ______ ____
DOCKED: USER                              x       y       z     vdW  Elec       q    Type
DOCKED: USER                           _______ _______ _______ _____ _____    ______ ____
DOCKED: ROOT
DOCKED: ATOM      1  C   UNL     1      37.334  17.994 124.120 -0.21 -0.00    +0.000 C 
DOCKED: ENDROOT
DOCKED: BRANCH   1   2
DOCKED: ATOM      2  C   UNL     1      36.059  18.300 124.850 -0.21 -0.00    +0.000 A 
DOCKED: ATOM      3  C   UNL     1      35.593  19.621 124.935 -0.18 -0.00    +0.000 A 
DOCKED: ATOM      4  C   UNL     1      34.426  19.918 125.643 -0.17 -0.00    +0.000 A 
DOCKED: ATOM      5  C   UNL     1      33.715  18.896 126.290 -0.26 -0.00    +0.000 A 
DOCKED: ATOM      6  C   UNL     1      32.542  19.185 127.005 -0.23 -0.00    +0.000 A 
DOCKED: ATOM      7  C   UNL     1      31.837  18.159 127.654 -0.12 -0.00    +0.000 A 
DOCKED: ATOM      8  C   UNL     1      32.311  16.839 127.582 -0.30 -0.00    +0.000 A 
DOCKED: ATOM      9  C   UNL     1      33.478  16.544 126.874 -0.36 -0.00    +0.000 A 
DOCKED: ATOM     10  C   UNL     1      34.187  17.564 126.223 -0.32 -0.00    +0.000 A 
DOCKED: ATOM     11  C   UNL     1      35.360  17.277 125.509 +0.03 -0.00    +0.000 A 
DOCKED: ATOM     12  CM  UNL     1      34.890  18.596 125.575 -0.25 -0.00    +0.000 AC
DOCKED: ATOM     13  CM  UNL     1      33.012  17.864 126.938 +0.00 -0.00    +0.000 AC
DOCKED: BRANCH   7  12
DOCKED: ATOM     14  C   UNL     1      30.568  18.457 128.408 -0.37 -0.00    +0.000 C 
DOCKED: BRANCH  12  13
DOCKED: ATOM     15  N   UNL     1      29.980  19.727 127.932 -0.33 -0.00    +0.000 N 
DOCKED: ATOM     16  H   UNL     1      30.103  19.774 126.921 -0.07 -0.00    +0.000 HD
DOCKED: BRANCH  13  15
DOCKED: ATOM     17  C   UNL     1      30.707  20.898 128.478 -0.18 -0.00    +0.000 C 
DOCKED: ATOM     18  C   UNL     1      30.023  21.466 129.721 -0.18 -0.00    +0.000 C 
DOCKED: ENDBRANCH  13  15
DOCKED: BRANCH  13  17
DOCKED: ATOM     19  C   UNL     1      28.511  19.775 128.139 -0.46 -0.00    +0.000 C 
DOCKED: ATOM     20  C   UNL     1      27.691  19.781 126.840 -0.55 -0.00    +0.000 C 
DOCKED: ENDBRANCH  13  17
DOCKED: ENDBRANCH  12  13
DOCKED: ENDBRANCH   7  12
DOCKED: ENDBRANCH   1   2
DOCKED: BRANCH   1  19
DOCKED: ATOM     21  O   UNL     1      37.023  17.485 122.827 -0.19 -0.00    +0.000 OA
DOCKED: BRANCH  19  21
DOCKED: ATOM     22  O   UNL     1      38.282  15.806 121.867 -0.24 -0.00    +0.000 OA
DOCKED: ATOM     23  C   UNL     1      37.229  16.149 122.473 -0.28 -0.00    +0.000 C 
DOCKED: ATOM     24  N   UNL     1      36.211  15.185 122.769 -0.35 -0.00    +0.000 N 
DOCKED: ATOM     25  H   UNL     1      35.344  15.517 123.098 -0.02 -0.00    +0.000 HD
DOCKED: BRANCH  22  24
DOCKED: ATOM     26  C   UNL     1      36.370  13.763 122.619 -0.35 -0.00    +0.000 A 
DOCKED: ATOM     27  C   UNL     1      36.151  12.927 123.722 -0.55 -0.00    +0.000 A 
DOCKED: ATOM     28  C   UNL     1      36.320  11.544 123.609 -0.62 -0.00    +0.000 A 
DOCKED: ATOM     29  C   UNL     1      36.720  10.970 122.390 -0.57 -0.00    +0.000 A 
DOCKED: ATOM     30  C   UNL     1      36.974  11.813 121.294 -0.48 -0.00    +0.000 A 
DOCKED: ATOM     31  C   UNL     1      36.804  13.197 121.408 -0.31 -0.00    +0.000 A 
DOCKED: ATOM     32  CM  UNL     1      36.557  12.369 122.507 +0.00 -0.00    +0.000 AC
DOCKED: BRANCH  27  30
DOCKED: ATOM     33  C   UNL     1      36.899   9.501 122.286 -0.66 -0.00    +0.000 C 
DOCKED: ATOM     34  N   UNL     1      37.149   8.695 123.444 -0.62 -0.00    +0.000 N 
DOCKED: ATOM     35  O   UNL     1      36.846   8.947 121.155 -2.65 -0.00    +0.000 OA
DOCKED: ATOM     36  H   UNL     1      37.278   9.123 124.322 -0.58 -0.00    +0.000 HD
DOCKED: BRANCH  31  34
DOCKED: ATOM     37  O   UNL     1      37.208   7.346 123.338 -2.06 -0.00    +0.000 OA
DOCKED: ATOM     38  H   UNL     1      37.295   7.098 122.404 -0.17 -0.00    +0.000 HD
DOCKED: ENDBRANCH  31  34
DOCKED: ENDBRANCH  27  30
DOCKED: ENDBRANCH  22  24
DOCKED: ENDBRANCH  19  21
DOCKED: ENDBRANCH   1  19
DOCKED: TORSDOF 10DOCKED: TER
DOCKED: ENDMDL
________________________________________________________________________________


	BEGINNING GENETIC ALGORITHM DOCKING 38 of 100
Run: 38 Seed: 1230586816 555688622 [ Run 38 of 100 GA/GALS ]
Beginning LAMARCKIAN GENETIC ALGORITHM (LGA), with a maximum of 2500000 energy evaluations.

Final-Value: -16.859


	FINAL GENETIC ALGORITHM DOCKED STATE
	_______________________________________________


Detailed state:  trans 37.213 17.097 123.350 quatxyzw 0.199597 0.676404 0.454202 0.544370 center 1.858 0.218 -0.021 ntor 10 -60.4166 165.2997 36.2876 -45.4815 179.2800 -8.8980 -120.8821 121.1868 142.0279 175.8079
State:	 37.213  17.097 123.350   0.238  0.806  0.541 114.037    -60.42  165.30   36.29  -45.48  179.28   -8.90 -120.88  121.19  142.03  175.81

DOCKED: MODEL       38
DOCKED: USER    Run = 38
DOCKED: USER    DPF = ligand_dock.biased.dpf
DOCKED: USER  
DOCKED: USER    Estimated Free Energy of Binding    =  -11.35 kcal/mol  [=(1)+(2)+(3)-(4)]
DOCKED: USER    Estimated Inhibition Constant, Ki   =    4.80 nM (nanomolar)  [Temperature = 298.15 K]
DOCKED: USER    
DOCKED: USER    (1) Final Intermolecular Energy     =  -14.33 kcal/mol
DOCKED: USER        vdW + Hbond + desolv Energy     =  -14.33 kcal/mol
DOCKED: USER        Electrostatic Energy            =   +0.00 kcal/mol
DOCKED: USER    (2) Final Total Internal Energy     =   -2.53 kcal/mol
DOCKED: USER    (3) Torsional Free Energy           =   +2.98 kcal/mol
DOCKED: USER    (4) Unbound System's Energy  [=(2)] =   -2.53 kcal/mol
DOCKED: USER    
DOCKED: USER    
DOCKED: USER    NEWDPF move ligand.dum.pdbqt
DOCKED: USER    NEWDPF about 1.858000 0.218000 -0.021000
DOCKED: USER    NEWDPF tran0 37.213488 17.096654 123.349974
DOCKED: USER    NEWDPF quaternion0 0.199597 0.676404 0.454202 0.544370
DOCKED: USER    NEWDPF axisangle0 0.237943 0.806351 0.541462 114.036726
DOCKED: USER    NEWDPF quat0 0.237943 0.806351 0.541462 114.036726
DOCKED: USER    NEWDPF dihe0 -60.42 165.30 36.29 -45.48 179.28 -8.90 -120.88 121.19 142.03 175.81 
DOCKED: USER  keepresnum = 1 
DOCKED: USER  
DOCKED: REMARK  Name = 
DOCKED: REMARK  12 active torsions:
DOCKED: REMARK  status: ('A' for Active; 'I' for Inactive)
DOCKED: REMARK    1  A    between atoms: C_2  and  O_3
DOCKED: REMARK    2  A    between atoms: O_3  and  C_4
DOCKED: REMARK    3  A    between atoms: C_4  and  C_5
DOCKED: REMARK    4  A    between atoms: C_10  and  C_11
DOCKED: REMARK    5  A    between atoms: C_11  and  N_12
DOCKED: REMARK    6  A    between atoms: N_12  and  C_13
DOCKED: REMARK    7  A    between atoms: N_12  and  C_15
DOCKED: REMARK    8  A    between atoms: C_13  and  C_14
DOCKED: REMARK    9  A    between atoms: C_15  and  C_16
DOCKED: REMARK   10  A    between atoms: N_21  and  C_22
DOCKED: REMARK   11  A    between atoms: C_25  and  C_26
DOCKED: REMARK   12  A    between atoms: N_27  and  O_28
DOCKED: REMARK                            x       y       z     vdW  Elec       q    Type
DOCKED: REMARK                         _______ _______ _______ _____ _____    ______ ____
DOCKED: USER                              x       y       z     vdW  Elec       q    Type
DOCKED: USER                           _______ _______ _______ _____ _____    ______ ____
DOCKED: ROOT
DOCKED: ATOM      1  C   UNL     1      35.929  18.045 122.952 -0.25 -0.00    +0.000 C 
DOCKED: ENDROOT
DOCKED: BRANCH   1   2
DOCKED: ATOM      2  C   UNL     1      36.597  17.872 121.620 -0.15 -0.00    +0.000 A 
DOCKED: ATOM      3  C   UNL     1      37.664  18.704 121.251 -0.07 -0.00    +0.000 A 
DOCKED: ATOM      4  C   UNL     1      38.267  18.571 119.997 -0.04 -0.00    +0.000 A 
DOCKED: ATOM      5  C   UNL     1      37.799  17.611 119.089 -0.05 -0.00    +0.000 A 
DOCKED: ATOM      6  C   UNL     1      38.397  17.472 117.827 -0.05 -0.00    +0.000 A 
DOCKED: ATOM      7  C   UNL     1      37.922  16.512 116.919 -0.08 -0.00    +0.000 A 
DOCKED: ATOM      8  C   UNL     1      36.844  15.688 117.282 -0.15 -0.00    +0.000 A 
DOCKED: ATOM      9  C   UNL     1      36.243  15.822 118.536 -0.16 -0.00    +0.000 A 
DOCKED: ATOM     10  C   UNL     1      36.712  16.779 119.446 -0.13 -0.00    +0.000 A 
DOCKED: ATOM     11  C   UNL     1      36.114  16.920 120.708 -0.16 -0.00    +0.000 A 
DOCKED: ATOM     12  CM  UNL     1      37.192  17.743 120.352 +0.00 -0.00    +0.000 AC
DOCKED: ATOM     13  CM  UNL     1      37.319  16.647 118.183 +0.00 -0.00    +0.000 AC
DOCKED: BRANCH   7  12
DOCKED: ATOM     14  C   UNL     1      38.570  16.342 115.570 -0.12 -0.00    +0.000 C 
DOCKED: BRANCH  12  13
DOCKED: ATOM     15  N   UNL     1      39.446  15.151 115.572 -0.26 -0.00    +0.000 N 
DOCKED: ATOM     16  H   UNL     1      39.536  14.827 116.534 -0.06 -0.00    +0.000 HD
DOCKED: BRANCH  13  15
DOCKED: ATOM     17  C   UNL     1      40.820  15.488 115.132 -0.27 -0.00    +0.000 C 
DOCKED: ATOM     18  C   UNL     1      41.804  15.510 116.301 -0.33 -0.00    +0.000 C 
DOCKED: ENDBRANCH  13  15
DOCKED: BRANCH  13  17
DOCKED: ATOM     19  C   UNL     1      38.837  14.010 114.843 -0.36 -0.00    +0.000 C 
DOCKED: ATOM     20  C   UNL     1      38.798  12.699 115.642 -0.56 -0.00    +0.000 C 
DOCKED: ENDBRANCH  13  17
DOCKED: ENDBRANCH  12  13
DOCKED: ENDBRANCH   7  12
DOCKED: ENDBRANCH   1   2
DOCKED: BRANCH   1  19
DOCKED: ATOM     21  O   UNL     1      36.525  17.159 123.894 -0.29 -0.00    +0.000 OA
DOCKED: BRANCH  19  21
DOCKED: ATOM     22  O   UNL     1      38.139  15.523 123.689 -0.30 -0.00    +0.000 OA
DOCKED: ATOM     23  C   UNL     1      36.930  15.864 123.561 -0.35 -0.00    +0.000 C 
DOCKED: ATOM     24  N   UNL     1      35.965  14.947 123.032 -0.41 -0.00    +0.000 N 
DOCKED: ATOM     25  H   UNL     1      35.074  15.299 122.801 -0.02 -0.00    +0.000 HD
DOCKED: BRANCH  22  24
DOCKED: ATOM     26  C   UNL     1      36.209  13.546 122.816 -0.36 -0.00    +0.000 A 
DOCKED: ATOM     27  C   UNL     1      35.904  12.631 123.833 -0.51 -0.00    +0.000 A 
DOCKED: ATOM     28  C   UNL     1      36.151  11.267 123.658 -0.57 -0.00    +0.000 A 
DOCKED: ATOM     29  C   UNL     1      36.717  10.790 122.463 -0.58 -0.00    +0.000 A 
DOCKED: ATOM     30  C   UNL     1      37.055  11.713 121.458 -0.49 -0.00    +0.000 A 
DOCKED: ATOM     31  C   UNL     1      36.807  13.078 121.633 -0.37 -0.00    +0.000 A 
DOCKED: ATOM     32  CM  UNL     1      36.474  12.171 122.644 +0.00 -0.00    +0.000 AC
DOCKED: BRANCH  27  30
DOCKED: ATOM     33  C   UNL     1      36.978   9.340 122.293 -0.66 -0.00    +0.000 C 
DOCKED: ATOM     34  N   UNL     1      37.145   8.473 123.422 -0.67 -0.00    +0.000 N 
DOCKED: ATOM     35  O   UNL     1      37.069   8.857 121.132 -2.69 -0.00    +0.000 OA
DOCKED: ATOM     36  H   UNL     1      37.162   8.850 124.332 -0.54 -0.00    +0.000 HD
DOCKED: BRANCH  31  34
DOCKED: ATOM     37  O   UNL     1      37.281   7.137 123.244 -1.80 -0.00    +0.000 OA
DOCKED: ATOM     38  H   UNL     1      37.794   6.969 122.438 -0.45 -0.00    +0.000 HD
DOCKED: ENDBRANCH  31  34
DOCKED: ENDBRANCH  27  30
DOCKED: ENDBRANCH  22  24
DOCKED: ENDBRANCH  19  21
DOCKED: ENDBRANCH   1  19
DOCKED: TORSDOF 10DOCKED: TER
DOCKED: ENDMDL
________________________________________________________________________________


	BEGINNING GENETIC ALGORITHM DOCKING 39 of 100
Run: 39 Seed: 1955028020 1483719570 [ Run 39 of 100 GA/GALS ]
Beginning LAMARCKIAN GENETIC ALGORITHM (LGA), with a maximum of 2500000 energy evaluations.

Final-Value: -17.657


	FINAL GENETIC ALGORITHM DOCKED STATE
	_______________________________________________


Detailed state:  trans 36.696 16.959 123.197 quatxyzw 0.680761 0.295445 0.552414 0.379626 center 1.858 0.218 -0.021 ntor 10 -5.0760 -179.9448 15.0715 -14.2212 -177.5992 -14.3506 -112.1105 82.0774 -132.8544 180.0000
State:	 36.696  16.959 123.197   0.736  0.319  0.597 135.379     -5.08 -179.94   15.07  -14.22 -177.60  -14.35 -112.11   82.08 -132.85  180.00

DOCKED: MODEL       39
DOCKED: USER    Run = 39
DOCKED: USER    DPF = ligand_dock.biased.dpf
DOCKED: USER  
DOCKED: USER    Estimated Free Energy of Binding    =  -12.14 kcal/mol  [=(1)+(2)+(3)-(4)]
DOCKED: USER    Estimated Inhibition Constant, Ki   =    1.26 nM (nanomolar)  [Temperature = 298.15 K]
DOCKED: USER    
DOCKED: USER    (1) Final Intermolecular Energy     =  -15.12 kcal/mol
DOCKED: USER        vdW + Hbond + desolv Energy     =  -15.12 kcal/mol
DOCKED: USER        Electrostatic Energy            =   +0.00 kcal/mol
DOCKED: USER    (2) Final Total Internal Energy     =   -2.53 kcal/mol
DOCKED: USER    (3) Torsional Free Energy           =   +2.98 kcal/mol
DOCKED: USER    (4) Unbound System's Energy  [=(2)] =   -2.53 kcal/mol
DOCKED: USER    
DOCKED: USER    
DOCKED: USER    NEWDPF move ligand.dum.pdbqt
DOCKED: USER    NEWDPF about 1.858000 0.218000 -0.021000
DOCKED: USER    NEWDPF tran0 36.696433 16.959385 123.196603
DOCKED: USER    NEWDPF quaternion0 0.680761 0.295445 0.552414 0.379626
DOCKED: USER    NEWDPF axisangle0 0.735846 0.319351 0.597114 135.379018
DOCKED: USER    NEWDPF quat0 0.735846 0.319351 0.597114 135.379018
DOCKED: USER    NEWDPF dihe0 -5.08 -179.94 15.07 -14.22 -177.60 -14.35 -112.11 82.08 -132.85 180.00 
DOCKED: USER  keepresnum = 1 
DOCKED: USER  
DOCKED: REMARK  Name = 
DOCKED: REMARK  12 active torsions:
DOCKED: REMARK  status: ('A' for Active; 'I' for Inactive)
DOCKED: REMARK    1  A    between atoms: C_2  and  O_3
DOCKED: REMARK    2  A    between atoms: O_3  and  C_4
DOCKED: REMARK    3  A    between atoms: C_4  and  C_5
DOCKED: REMARK    4  A    between atoms: C_10  and  C_11
DOCKED: REMARK    5  A    between atoms: C_11  and  N_12
DOCKED: REMARK    6  A    between atoms: N_12  and  C_13
DOCKED: REMARK    7  A    between atoms: N_12  and  C_15
DOCKED: REMARK    8  A    between atoms: C_13  and  C_14
DOCKED: REMARK    9  A    between atoms: C_15  and  C_16
DOCKED: REMARK   10  A    between atoms: N_21  and  C_22
DOCKED: REMARK   11  A    between atoms: C_25  and  C_26
DOCKED: REMARK   12  A    between atoms: N_27  and  O_28
DOCKED: REMARK                            x       y       z     vdW  Elec       q    Type
DOCKED: REMARK                         _______ _______ _______ _____ _____    ______ ____
DOCKED: USER                              x       y       z     vdW  Elec       q    Type
DOCKED: USER                           _______ _______ _______ _____ _____    ______ ____
DOCKED: ROOT
DOCKED: ATOM      1  C   UNL     1      36.914  18.580 123.016 -0.17 -0.00    +0.000 C 
DOCKED: ENDROOT
DOCKED: BRANCH   1   2
DOCKED: ATOM      2  C   UNL     1      36.248  18.222 121.720 -0.18 -0.00    +0.000 A 
DOCKED: ATOM      3  C   UNL     1      36.995  17.651 120.678 -0.11 -0.00    +0.000 A 
DOCKED: ATOM      4  C   UNL     1      36.389  17.347 119.456 -0.12 -0.00    +0.000 A 
DOCKED: ATOM      5  C   UNL     1      35.029  17.625 119.255 -0.13 -0.00    +0.000 A 
DOCKED: ATOM      6  C   UNL     1      34.413  17.325 118.030 -0.11 -0.00    +0.000 A 
DOCKED: ATOM      7  C   UNL     1      33.052  17.610 117.833 -0.15 -0.00    +0.000 A 
DOCKED: ATOM      8  C   UNL     1      32.309  18.195 118.870 -0.28 -0.00    +0.000 A 
DOCKED: ATOM      9  C   UNL     1      32.915  18.498 120.091 -0.36 -0.00    +0.000 A 
DOCKED: ATOM     10  C   UNL     1      34.273  18.216 120.295 -0.28 -0.00    +0.000 A 
DOCKED: ATOM     11  C   UNL     1      34.891  18.517 121.519 -0.24 -0.00    +0.000 A 
DOCKED: ATOM     12  CM  UNL     1      35.637  17.930 120.487 +0.00 -0.00    +0.000 AC
DOCKED: ATOM     13  CM  UNL     1      33.665  17.912 119.062 +0.00 -0.00    +0.000 AC
DOCKED: BRANCH   7  12
DOCKED: ATOM     14  C   UNL     1      32.378  17.274 116.528 -0.15 -0.00    +0.000 C 
DOCKED: BRANCH  12  13
DOCKED: ATOM     15  N   UNL     1      31.673  15.979 116.638 -0.22 -0.00    +0.000 N 
DOCKED: ATOM     16  H   UNL     1      31.510  15.791 117.627 +0.00 -0.00    +0.000 HD
DOCKED: BRANCH  13  15
DOCKED: ATOM     17  C   UNL     1      32.516  14.861 116.152 -0.31 -0.00    +0.000 C 
DOCKED: ATOM     18  C   UNL     1      32.025  13.510 116.668 -0.50 -0.00    +0.000 C 
DOCKED: ENDBRANCH  13  15
DOCKED: BRANCH  13  17
DOCKED: ATOM     19  C   UNL     1      30.319  16.027 116.032 -0.28 -0.00    +0.000 C 
DOCKED: ATOM     20  C   UNL     1      29.171  15.884 117.041 -0.35 -0.00    +0.000 C 
DOCKED: ENDBRANCH  13  17
DOCKED: ENDBRANCH  12  13
DOCKED: ENDBRANCH   7  12
DOCKED: ENDBRANCH   1   2
DOCKED: BRANCH   1  19
DOCKED: ATOM     21  O   UNL     1      36.852  17.465 123.899 -0.26 -0.00    +0.000 OA
DOCKED: BRANCH  19  21
DOCKED: ATOM     22  O   UNL     1      38.392  15.806 123.451 -0.35 -0.00    +0.000 OA
DOCKED: ATOM     23  C   UNL     1      37.183  16.168 123.501 -0.32 -0.00    +0.000 C 
DOCKED: ATOM     24  N   UNL     1      36.136  15.270 123.109 -0.40 -0.00    +0.000 N 
DOCKED: ATOM     25  H   UNL     1      35.228  15.638 123.011 -0.02 -0.00    +0.000 HD
DOCKED: BRANCH  22  24
DOCKED: ATOM     26  C   UNL     1      36.324  13.868 122.849 -0.41 -0.00    +0.000 A 
DOCKED: ATOM     27  C   UNL     1      35.976  12.935 123.835 -0.53 -0.00    +0.000 A 
DOCKED: ATOM     28  C   UNL     1      36.168  11.568 123.617 -0.62 -0.00    +0.000 A 
DOCKED: ATOM     29  C   UNL     1      36.720  11.106 122.410 -0.57 -0.00    +0.000 A 
DOCKED: ATOM     30  C   UNL     1      37.102  12.046 121.436 -0.49 -0.00    +0.000 A 
DOCKED: ATOM     31  C   UNL     1      36.909  13.414 121.654 -0.34 -0.00    +0.000 A 
DOCKED: ATOM     32  CM  UNL     1      36.533  12.489 122.634 +0.00 -0.00    +0.000 AC
DOCKED: BRANCH  27  30
DOCKED: ATOM     33  C   UNL     1      36.922   9.653 122.194 -0.64 -0.00    +0.000 C 
DOCKED: ATOM     34  N   UNL     1      36.982   8.735 123.293 -0.66 -0.00    +0.000 N 
DOCKED: ATOM     35  O   UNL     1      37.059   9.212 121.021 -2.74 -0.00    +0.000 OA
DOCKED: ATOM     36  H   UNL     1      36.962   9.075 124.217 -0.53 -0.00    +0.000 HD
DOCKED: BRANCH  31  34
DOCKED: ATOM     37  O   UNL     1      37.065   7.402 123.067 -2.19 -0.00    +0.000 OA
DOCKED: ATOM     38  H   UNL     1      37.311   7.246 122.143 -0.13 -0.00    +0.000 HD
DOCKED: ENDBRANCH  31  34
DOCKED: ENDBRANCH  27  30
DOCKED: ENDBRANCH  22  24
DOCKED: ENDBRANCH  19  21
DOCKED: ENDBRANCH   1  19
DOCKED: TORSDOF 10DOCKED: TER
DOCKED: ENDMDL
________________________________________________________________________________


	BEGINNING GENETIC ALGORITHM DOCKING 40 of 100
Run: 40 Seed: 791358166 625388544 [ Run 40 of 100 GA/GALS ]
Beginning LAMARCKIAN GENETIC ALGORITHM (LGA), with a maximum of 2500000 energy evaluations.

Final-Value: -16.651


	FINAL GENETIC ALGORITHM DOCKED STATE
	_______________________________________________


Detailed state:  trans 37.967 17.336 123.184 quatxyzw 0.003452 -0.848799 -0.494194 -0.187887 center 1.858 0.218 -0.021 ntor 10 -48.8383 125.0337 18.0682 -9.5358 -170.0190 30.2712 -170.9253 116.2047 129.6717 57.3390
State:	 37.967  17.336 123.184   0.004 -0.864 -0.503 -158.341    -48.84  125.03   18.07   -9.54 -170.02   30.27 -170.93  116.20  129.67   57.34

DOCKED: MODEL       40
DOCKED: USER    Run = 40
DOCKED: USER    DPF = ligand_dock.biased.dpf
DOCKED: USER  
DOCKED: USER    Estimated Free Energy of Binding    =  -11.50 kcal/mol  [=(1)+(2)+(3)-(4)]
DOCKED: USER    Estimated Inhibition Constant, Ki   =    3.73 nM (nanomolar)  [Temperature = 298.15 K]
DOCKED: USER    
DOCKED: USER    (1) Final Intermolecular Energy     =  -14.48 kcal/mol
DOCKED: USER        vdW + Hbond + desolv Energy     =  -14.48 kcal/mol
DOCKED: USER        Electrostatic Energy            =   +0.00 kcal/mol
DOCKED: USER    (2) Final Total Internal Energy     =   -2.17 kcal/mol
DOCKED: USER    (3) Torsional Free Energy           =   +2.98 kcal/mol
DOCKED: USER    (4) Unbound System's Energy  [=(2)] =   -2.17 kcal/mol
DOCKED: USER    
DOCKED: USER    
DOCKED: USER    NEWDPF move ligand.dum.pdbqt
DOCKED: USER    NEWDPF about 1.858000 0.218000 -0.021000
DOCKED: USER    NEWDPF tran0 37.967251 17.335874 123.184221
DOCKED: USER    NEWDPF quaternion0 0.003452 -0.848799 -0.494194 -0.187887
DOCKED: USER    NEWDPF axisangle0 0.003515 -0.864189 -0.503155 -158.341004
DOCKED: USER    NEWDPF quat0 0.003515 -0.864189 -0.503155 -158.341004
DOCKED: USER    NEWDPF dihe0 -48.84 125.03 18.07 -9.54 -170.02 30.27 -170.93 116.20 129.67 57.34 
DOCKED: USER  keepresnum = 1 
DOCKED: USER  
DOCKED: REMARK  Name = 
DOCKED: REMARK  12 active torsions:
DOCKED: REMARK  status: ('A' for Active; 'I' for Inactive)
DOCKED: REMARK    1  A    between atoms: C_2  and  O_3
DOCKED: REMARK    2  A    between atoms: O_3  and  C_4
DOCKED: REMARK    3  A    between atoms: C_4  and  C_5
DOCKED: REMARK    4  A    between atoms: C_10  and  C_11
DOCKED: REMARK    5  A    between atoms: C_11  and  N_12
DOCKED: REMARK    6  A    between atoms: N_12  and  C_13
DOCKED: REMARK    7  A    between atoms: N_12  and  C_15
DOCKED: REMARK    8  A    between atoms: C_13  and  C_14
DOCKED: REMARK    9  A    between atoms: C_15  and  C_16
DOCKED: REMARK   10  A    between atoms: N_21  and  C_22
DOCKED: REMARK   11  A    between atoms: C_25  and  C_26
DOCKED: REMARK   12  A    between atoms: N_27  and  O_28
DOCKED: REMARK                            x       y       z     vdW  Elec       q    Type
DOCKED: REMARK                         _______ _______ _______ _____ _____    ______ ____
DOCKED: USER                              x       y       z     vdW  Elec       q    Type
DOCKED: USER                           _______ _______ _______ _____ _____    ______ ____
DOCKED: ROOT
DOCKED: ATOM      1  C   UNL     1      37.511  18.286 121.920 -0.12 -0.00    +0.000 C 
DOCKED: ENDROOT
DOCKED: BRANCH   1   2
DOCKED: ATOM      2  C   UNL     1      38.964  18.063 121.618 -0.07 -0.00    +0.000 A 
DOCKED: ATOM      3  C   UNL     1      39.442  18.205 120.307 -0.03 -0.00    +0.000 A 
DOCKED: ATOM      4  C   UNL     1      40.787  17.964 120.012 -0.05 -0.00    +0.000 A 
DOCKED: ATOM      5  C   UNL     1      41.669  17.562 121.025 -0.10 -0.00    +0.000 A 
DOCKED: ATOM      6  C   UNL     1      43.021  17.317 120.738 -0.13 -0.00    +0.000 A 
DOCKED: ATOM      7  C   UNL     1      43.900  16.910 121.756 -0.26 -0.00    +0.000 A 
DOCKED: ATOM      8  C   UNL     1      43.418  16.754 123.065 -0.33 -0.00    +0.000 A 
DOCKED: ATOM      9  C   UNL     1      42.074  16.996 123.359 -0.34 -0.00    +0.000 A 
DOCKED: ATOM     10  C   UNL     1      41.192  17.401 122.347 -0.19 -0.00    +0.000 A 
DOCKED: ATOM     11  C   UNL     1      39.840  17.646 122.633 -0.15 -0.00    +0.000 A 
DOCKED: ATOM     12  CM  UNL     1      40.316  17.807 121.324 +0.00 -0.00    +0.000 AC
DOCKED: ATOM     13  CM  UNL     1      42.546  17.156 122.049 +0.00 -0.00    +0.000 AC
DOCKED: BRANCH   7  12
DOCKED: ATOM     14  C   UNL     1      45.356  16.663 121.461 -0.28 +0.00    +0.000 C 
DOCKED: BRANCH  12  13
DOCKED: ATOM     15  N   UNL     1      46.191  17.145 122.581 -0.33 +0.00    +0.000 N 
DOCKED: ATOM     16  H   UNL     1      45.624  17.129 123.428 -0.07 -0.00    +0.000 HD
DOCKED: BRANCH  13  15
DOCKED: ATOM     17  C   UNL     1      46.587  18.560 122.392 -0.19 -0.00    +0.000 C 
DOCKED: ATOM     18  C   UNL     1      46.031  19.461 123.493 -0.21 -0.00    +0.000 C 
DOCKED: ENDBRANCH  13  15
DOCKED: BRANCH  13  17
DOCKED: ATOM     19  C   UNL     1      47.325  16.230 122.866 -0.40 +0.00    +0.000 C 
DOCKED: ATOM     20  C   UNL     1      48.054  16.520 124.186 -0.52 +0.00    +0.000 C 
DOCKED: ENDBRANCH  13  17
DOCKED: ENDBRANCH  12  13
DOCKED: ENDBRANCH   7  12
DOCKED: ENDBRANCH   1   2
DOCKED: BRANCH   1  19
DOCKED: ATOM     21  O   UNL     1      37.116  17.424 122.982 -0.20 -0.00    +0.000 OA
DOCKED: BRANCH  19  21
DOCKED: ATOM     22  O   UNL     1      38.151  15.549 123.840 -0.23 -0.00    +0.000 OA
DOCKED: ATOM     23  C   UNL     1      37.378  16.051 122.978 -0.32 -0.00    +0.000 C 
DOCKED: ATOM     24  N   UNL     1      36.794  15.233 121.957 -0.28 -0.00    +0.000 N 
DOCKED: ATOM     25  H   UNL     1      36.329  15.685 121.215 -0.01 -0.00    +0.000 HD
DOCKED: BRANCH  22  24
DOCKED: ATOM     26  C   UNL     1      36.841  13.796 121.942 -0.32 -0.00    +0.000 A 
DOCKED: ATOM     27  C   UNL     1      36.642  13.090 123.136 -0.54 -0.00    +0.000 A 
DOCKED: ATOM     28  C   UNL     1      36.704  11.694 123.154 -0.62 -0.00    +0.000 A 
DOCKED: ATOM     29  C   UNL     1      36.974  10.974 121.977 -0.49 -0.00    +0.000 A 
DOCKED: ATOM     30  C   UNL     1      37.208  11.686 120.787 -0.41 -0.00    +0.000 A 
DOCKED: ATOM     31  C   UNL     1      37.146  13.083 120.770 -0.41 -0.00    +0.000 A 
DOCKED: ATOM     32  CM  UNL     1      36.919  12.387 121.961 +0.00 -0.00    +0.000 AC
DOCKED: BRANCH  27  30
DOCKED: ATOM     33  C   UNL     1      37.041   9.493 122.012 -0.62 -0.00    +0.000 C 
DOCKED: ATOM     34  N   UNL     1      37.104   8.777 123.252 -0.65 -0.00    +0.000 N 
DOCKED: ATOM     35  O   UNL     1      37.057   8.846 120.930 -2.71 -0.00    +0.000 OA
DOCKED: ATOM     36  H   UNL     1      37.178   9.271 124.100 -0.56 -0.00    +0.000 HD
DOCKED: BRANCH  31  34
DOCKED: ATOM     37  O   UNL     1      37.061   7.423 123.262 -2.17 -0.00    +0.000 OA
DOCKED: ATOM     38  H   UNL     1      37.274   7.086 122.377 -0.17 -0.00    +0.000 HD
DOCKED: ENDBRANCH  31  34
DOCKED: ENDBRANCH  27  30
DOCKED: ENDBRANCH  22  24
DOCKED: ENDBRANCH  19  21
DOCKED: ENDBRANCH   1  19
DOCKED: TORSDOF 10DOCKED: TER
DOCKED: ENDMDL
________________________________________________________________________________


	BEGINNING GENETIC ALGORITHM DOCKING 41 of 100
Run: 41 Seed: 501881760 1305320614 [ Run 41 of 100 GA/GALS ]
Beginning LAMARCKIAN GENETIC ALGORITHM (LGA), with a maximum of 2500000 energy evaluations.

Final-Value: -16.801


	FINAL GENETIC ALGORITHM DOCKED STATE
	_______________________________________________


Detailed state:  trans 37.090 16.907 123.035 quatxyzw -0.868687 0.193743 0.217347 -0.400758 center 1.858 0.218 -0.021 ntor 10 -39.0130 -73.9411 1.6361 -37.6913 52.8220 -166.6757 -155.5513 43.1551 -120.2701 -119.3935
State:	 37.090  16.907 123.035  -0.948  0.211  0.237 -132.749    -39.01  -73.94    1.64  -37.69   52.82 -166.68 -155.55   43.16 -120.27 -119.39

DOCKED: MODEL       41
DOCKED: USER    Run = 41
DOCKED: USER    DPF = ligand_dock.biased.dpf
DOCKED: USER  
DOCKED: USER    Estimated Free Energy of Binding    =  -12.24 kcal/mol  [=(1)+(2)+(3)-(4)]
DOCKED: USER    Estimated Inhibition Constant, Ki   =    1.07 nM (nanomolar)  [Temperature = 298.15 K]
DOCKED: USER    
DOCKED: USER    (1) Final Intermolecular Energy     =  -15.22 kcal/mol
DOCKED: USER        vdW + Hbond + desolv Energy     =  -15.22 kcal/mol
DOCKED: USER        Electrostatic Energy            =   +0.00 kcal/mol
DOCKED: USER    (2) Final Total Internal Energy     =   -1.58 kcal/mol
DOCKED: USER    (3) Torsional Free Energy           =   +2.98 kcal/mol
DOCKED: USER    (4) Unbound System's Energy  [=(2)] =   -1.58 kcal/mol
DOCKED: USER    
DOCKED: USER    
DOCKED: USER    NEWDPF move ligand.dum.pdbqt
DOCKED: USER    NEWDPF about 1.858000 0.218000 -0.021000
DOCKED: USER    NEWDPF tran0 37.090012 16.906644 123.034829
DOCKED: USER    NEWDPF quaternion0 -0.868687 0.193743 0.217347 -0.400758
DOCKED: USER    NEWDPF axisangle0 -0.948158 0.211468 0.237231 -132.748792
DOCKED: USER    NEWDPF quat0 -0.948158 0.211468 0.237231 -132.748792
DOCKED: USER    NEWDPF dihe0 -39.01 -73.94 1.64 -37.69 52.82 -166.68 -155.55 43.16 -120.27 -119.39 
DOCKED: USER  keepresnum = 1 
DOCKED: USER  
DOCKED: REMARK  Name = 
DOCKED: REMARK  12 active torsions:
DOCKED: REMARK  status: ('A' for Active; 'I' for Inactive)
DOCKED: REMARK    1  A    between atoms: C_2  and  O_3
DOCKED: REMARK    2  A    between atoms: O_3  and  C_4
DOCKED: REMARK    3  A    between atoms: C_4  and  C_5
DOCKED: REMARK    4  A    between atoms: C_10  and  C_11
DOCKED: REMARK    5  A    between atoms: C_11  and  N_12
DOCKED: REMARK    6  A    between atoms: N_12  and  C_13
DOCKED: REMARK    7  A    between atoms: N_12  and  C_15
DOCKED: REMARK    8  A    between atoms: C_13  and  C_14
DOCKED: REMARK    9  A    between atoms: C_15  and  C_16
DOCKED: REMARK   10  A    between atoms: N_21  and  C_22
DOCKED: REMARK   11  A    between atoms: C_25  and  C_26
DOCKED: REMARK   12  A    between atoms: N_27  and  O_28
DOCKED: REMARK                            x       y       z     vdW  Elec       q    Type
DOCKED: REMARK                         _______ _______ _______ _____ _____    ______ ____
DOCKED: USER                              x       y       z     vdW  Elec       q    Type
DOCKED: USER                           _______ _______ _______ _____ _____    ______ ____
DOCKED: ROOT
DOCKED: ATOM      1  C   UNL     1      36.962  18.500 122.645 -0.16 -0.00    +0.000 C 
DOCKED: ENDROOT
DOCKED: BRANCH   1   2
DOCKED: ATOM      2  C   UNL     1      35.968  18.385 123.763 -0.21 -0.00    +0.000 A 
DOCKED: ATOM      3  C   UNL     1      35.458  17.130 124.128 -0.33 -0.00    +0.000 A 
DOCKED: ATOM      4  C   UNL     1      34.506  17.020 125.144 -0.39 -0.00    +0.000 A 
DOCKED: ATOM      5  C   UNL     1      34.039  18.168 125.800 -0.32 -0.00    +0.000 A 
DOCKED: ATOM      6  C   UNL     1      33.081  18.068 126.821 -0.27 -0.00    +0.000 A 
DOCKED: ATOM      7  C   UNL     1      32.613  19.221 127.471 -0.20 -0.00    +0.000 A 
DOCKED: ATOM      8  C   UNL     1      33.112  20.478 127.096 -0.15 -0.00    +0.000 A 
DOCKED: ATOM      9  C   UNL     1      34.065  20.587 126.080 -0.16 -0.00    +0.000 A 
DOCKED: ATOM     10  C   UNL     1      34.535  19.440 125.427 -0.20 -0.00    +0.000 A 
DOCKED: ATOM     11  C   UNL     1      35.492  19.539 124.405 -0.17 -0.00    +0.000 A 
DOCKED: ATOM     12  CM  UNL     1      35.000  18.281 124.778 -0.37 -0.00    +0.000 AC
DOCKED: ATOM     13  CM  UNL     1      33.574  19.327 126.449 -0.00 -0.00    +0.000 AC
DOCKED: BRANCH   7  12
DOCKED: ATOM     14  C   UNL     1      31.599  19.121 128.581 -0.21 -0.00    +0.000 C 
DOCKED: BRANCH  12  13
DOCKED: ATOM     15  N   UNL     1      30.403  18.389 128.112 -0.36 -0.00    +0.000 N 
DOCKED: ATOM     16  H   UNL     1      30.536  18.163 127.127 -0.57 -0.00    +0.000 HD
DOCKED: BRANCH  13  15
DOCKED: ATOM     17  C   UNL     1      29.192  19.241 128.167 -0.44 -0.00    +0.000 C 
DOCKED: ATOM     18  C   UNL     1      28.455  19.272 126.829 -0.66 -0.00    +0.000 C 
DOCKED: ENDBRANCH  13  15
DOCKED: BRANCH  13  17
DOCKED: ATOM     19  C   UNL     1      30.252  17.075 128.785 -0.44 -0.00    +0.000 C 
DOCKED: ATOM     20  C   UNL     1      31.439  16.684 129.678 -0.43 -0.00    +0.000 C 
DOCKED: ENDBRANCH  13  17
DOCKED: ENDBRANCH  12  13
DOCKED: ENDBRANCH   7  12
DOCKED: ENDBRANCH   1   2
DOCKED: BRANCH   1  19
DOCKED: ATOM     21  O   UNL     1      37.725  17.300 122.571 -0.17 -0.00    +0.000 OA
DOCKED: BRANCH  19  21
DOCKED: ATOM     22  O   UNL     1      36.227  15.919 121.488 -0.24 -0.00    +0.000 OA
DOCKED: ATOM     23  C   UNL     1      37.145  16.049 122.345 -0.28 -0.00    +0.000 C 
DOCKED: ATOM     24  N   UNL     1      37.576  14.929 123.129 -0.39 -0.00    +0.000 N 
DOCKED: ATOM     25  H   UNL     1      38.177  15.104 123.889 -0.03 -0.00    +0.000 HD
DOCKED: BRANCH  22  24
DOCKED: ATOM     26  C   UNL     1      37.190  13.567 122.879 -0.48 -0.00    +0.000 A 
DOCKED: ATOM     27  C   UNL     1      37.451  12.998 121.625 -0.44 -0.00    +0.000 A 
DOCKED: ATOM     28  C   UNL     1      37.067  11.683 121.348 -0.48 -0.00    +0.000 A 
DOCKED: ATOM     29  C   UNL     1      36.406  10.911 122.319 -0.59 -0.00    +0.000 A 
DOCKED: ATOM     30  C   UNL     1      36.113  11.495 123.564 -0.62 -0.00    +0.000 A 
DOCKED: ATOM     31  C   UNL     1      36.498  12.811 123.841 -0.53 -0.00    +0.000 A 
DOCKED: ATOM     32  CM  UNL     1      36.788  12.244 122.595 +0.00 -0.00    +0.000 AC
DOCKED: BRANCH  27  30
DOCKED: ATOM     33  C   UNL     1      36.001   9.518 122.009 -0.58 -0.00    +0.000 C 
DOCKED: ATOM     34  N   UNL     1      34.848   8.923 122.617 -0.60 -0.00    +0.000 N 
DOCKED: ATOM     35  O   UNL     1      36.691   8.835 121.206 -2.61 -0.00    +0.000 OA
DOCKED: ATOM     36  H   UNL     1      34.349   9.415 123.309 -0.44 -0.00    +0.000 HD
DOCKED: BRANCH  31  34
DOCKED: ATOM     37  O   UNL     1      34.440   7.687 122.243 -0.66 -0.00    +0.000 OA
DOCKED: ATOM     38  H   UNL     1      35.048   7.334 121.575 -0.01 -0.00    +0.000 HD
DOCKED: ENDBRANCH  31  34
DOCKED: ENDBRANCH  27  30
DOCKED: ENDBRANCH  22  24
DOCKED: ENDBRANCH  19  21
DOCKED: ENDBRANCH   1  19
DOCKED: TORSDOF 10DOCKED: TER
DOCKED: ENDMDL
________________________________________________________________________________


	BEGINNING GENETIC ALGORITHM DOCKING 42 of 100
Run: 42 Seed: 1421743950 2087836659 [ Run 42 of 100 GA/GALS ]
Beginning LAMARCKIAN GENETIC ALGORITHM (LGA), with a maximum of 2500000 energy evaluations.

Final-Value: -16.173


	FINAL GENETIC ALGORITHM DOCKED STATE
	_______________________________________________


Detailed state:  trans 38.193 16.748 121.378 quatxyzw 0.173865 -0.163791 -0.960968 0.139584 center 1.858 0.218 -0.021 ntor 10 -48.1137 159.2124 18.1131 -174.5510 3.8166 -17.3215 176.5117 179.9222 -104.6164 -165.9609
State:	 38.193  16.748 121.378   0.176 -0.165 -0.970 163.952    -48.11  159.21   18.11 -174.55    3.82  -17.32  176.51  179.92 -104.62 -165.96

DOCKED: MODEL       42
DOCKED: USER    Run = 42
DOCKED: USER    DPF = ligand_dock.biased.dpf
DOCKED: USER  
DOCKED: USER    Estimated Free Energy of Binding    =  -11.19 kcal/mol  [=(1)+(2)+(3)-(4)]
DOCKED: USER    Estimated Inhibition Constant, Ki   =    6.27 nM (nanomolar)  [Temperature = 298.15 K]
DOCKED: USER    
DOCKED: USER    (1) Final Intermolecular Energy     =  -14.17 kcal/mol
DOCKED: USER        vdW + Hbond + desolv Energy     =  -14.17 kcal/mol
DOCKED: USER        Electrostatic Energy            =   +0.00 kcal/mol
DOCKED: USER    (2) Final Total Internal Energy     =   -2.00 kcal/mol
DOCKED: USER    (3) Torsional Free Energy           =   +2.98 kcal/mol
DOCKED: USER    (4) Unbound System's Energy  [=(2)] =   -2.00 kcal/mol
DOCKED: USER    
DOCKED: USER    
DOCKED: USER    NEWDPF move ligand.dum.pdbqt
DOCKED: USER    NEWDPF about 1.858000 0.218000 -0.021000
DOCKED: USER    NEWDPF tran0 38.192501 16.747845 121.378011
DOCKED: USER    NEWDPF quaternion0 0.173865 -0.163791 -0.960968 0.139584
DOCKED: USER    NEWDPF axisangle0 0.175584 -0.165410 -0.970469 163.952401
DOCKED: USER    NEWDPF quat0 0.175584 -0.165410 -0.970469 163.952401
DOCKED: USER    NEWDPF dihe0 -48.11 159.21 18.11 -174.55 3.82 -17.32 176.51 179.92 -104.62 -165.96 
DOCKED: USER  keepresnum = 1 
DOCKED: USER  
DOCKED: REMARK  Name = 
DOCKED: REMARK  12 active torsions:
DOCKED: REMARK  status: ('A' for Active; 'I' for Inactive)
DOCKED: REMARK    1  A    between atoms: C_2  and  O_3
DOCKED: REMARK    2  A    between atoms: O_3  and  C_4
DOCKED: REMARK    3  A    between atoms: C_4  and  C_5
DOCKED: REMARK    4  A    between atoms: C_10  and  C_11
DOCKED: REMARK    5  A    between atoms: C_11  and  N_12
DOCKED: REMARK    6  A    between atoms: N_12  and  C_13
DOCKED: REMARK    7  A    between atoms: N_12  and  C_15
DOCKED: REMARK    8  A    between atoms: C_13  and  C_14
DOCKED: REMARK    9  A    between atoms: C_15  and  C_16
DOCKED: REMARK   10  A    between atoms: N_21  and  C_22
DOCKED: REMARK   11  A    between atoms: C_25  and  C_26
DOCKED: REMARK   12  A    between atoms: N_27  and  O_28
DOCKED: REMARK                            x       y       z     vdW  Elec       q    Type
DOCKED: REMARK                         _______ _______ _______ _____ _____    ______ ____
DOCKED: USER                              x       y       z     vdW  Elec       q    Type
DOCKED: USER                           _______ _______ _______ _____ _____    ______ ____
DOCKED: ROOT
DOCKED: ATOM      1  C   UNL     1      38.115  17.857 122.591 -0.14 -0.00    +0.000 C 
DOCKED: ENDROOT
DOCKED: BRANCH   1   2
DOCKED: ATOM      2  C   UNL     1      39.564  17.468 122.633 -0.16 -0.00    +0.000 A 
DOCKED: ATOM      3  C   UNL     1      39.935  16.164 122.997 -0.22 -0.00    +0.000 A 
DOCKED: ATOM      4  C   UNL     1      41.283  15.806 123.073 -0.38 -0.00    +0.000 A 
DOCKED: ATOM      5  C   UNL     1      42.281  16.753 122.799 -0.36 -0.00    +0.000 A 
DOCKED: ATOM      6  C   UNL     1      43.638  16.402 122.873 -0.20 -0.00    +0.000 A 
DOCKED: ATOM      7  C   UNL     1      44.633  17.355 122.603 -0.29 -0.00    +0.000 A 
DOCKED: ATOM      8  C   UNL     1      44.262  18.663 122.253 -0.16 -0.00    +0.000 A 
DOCKED: ATOM      9  C   UNL     1      42.914  19.020 122.177 -0.11 -0.00    +0.000 A 
DOCKED: ATOM     10  C   UNL     1      41.916  18.074 122.447 -0.17 -0.00    +0.000 A 
DOCKED: ATOM     11  C   UNL     1      40.559  18.423 122.373 -0.10 -0.00    +0.000 A 
DOCKED: ATOM     12  CM  UNL     1      40.923  17.115 122.720 +0.00 -0.00    +0.000 AC
DOCKED: ATOM     13  CM  UNL     1      43.274  17.711 122.526 +0.00 -0.00    +0.000 AC
DOCKED: BRANCH   7  12
DOCKED: ATOM     14  C   UNL     1      46.091  16.982 122.662 -0.36 +0.00    +0.000 C 
DOCKED: BRANCH  12  13
DOCKED: ATOM     15  N   UNL     1      46.574  16.601 121.318 -0.24 +0.00    +0.000 N 
DOCKED: ATOM     16  H   UNL     1      47.189  15.795 121.419 -0.02 +0.00    +0.000 HD
DOCKED: BRANCH  13  15
DOCKED: ATOM     17  C   UNL     1      47.408  17.670 120.719 -0.11 +0.00    +0.000 C 
DOCKED: ATOM     18  C   UNL     1      48.837  17.197 120.454 -0.11 +0.00    +0.000 C 
DOCKED: ENDBRANCH  13  15
DOCKED: BRANCH  13  17
DOCKED: ATOM     19  C   UNL     1      45.472  16.129 120.442 -0.27 +0.00    +0.000 C 
DOCKED: ATOM     20  C   UNL     1      45.788  14.841 119.669 -0.42 +0.00    +0.000 C 
DOCKED: ENDBRANCH  13  17
DOCKED: ENDBRANCH  12  13
DOCKED: ENDBRANCH   7  12
DOCKED: ENDBRANCH   1   2
DOCKED: BRANCH   1  19
DOCKED: ATOM     21  O   UNL     1      37.517  17.309 121.421 -0.13 -0.00    +0.000 OA
DOCKED: BRANCH  19  21
DOCKED: ATOM     22  O   UNL     1      36.640  15.523 120.252 -0.23 -0.00    +0.000 OA
DOCKED: ATOM     23  C   UNL     1      37.191  15.956 121.303 -0.23 -0.00    +0.000 C 
DOCKED: ATOM     24  N   UNL     1      37.450  15.077 122.405 -0.32 -0.00    +0.000 N 
DOCKED: ATOM     25  H   UNL     1      37.732  15.481 123.258 -0.02 -0.00    +0.000 HD
DOCKED: BRANCH  22  24
DOCKED: ATOM     26  C   UNL     1      37.326  13.646 122.349 -0.44 -0.00    +0.000 A 
DOCKED: ATOM     27  C   UNL     1      37.536  12.985 121.131 -0.44 -0.00    +0.000 A 
DOCKED: ATOM     28  C   UNL     1      37.401  11.597 121.045 -0.39 -0.00    +0.000 A 
DOCKED: ATOM     29  C   UNL     1      37.045  10.841 122.174 -0.48 -0.00    +0.000 A 
DOCKED: ATOM     30  C   UNL     1      36.800  11.509 123.388 -0.62 -0.00    +0.000 A 
DOCKED: ATOM     31  C   UNL     1      36.936  12.898 123.474 -0.55 -0.00    +0.000 A 
DOCKED: ATOM     32  CM  UNL     1      37.174  12.246 122.260 +0.00 -0.00    +0.000 AC
DOCKED: BRANCH  27  30
DOCKED: ATOM     33  C   UNL     1      36.901   9.368 122.066 -0.67 -0.00    +0.000 C 
DOCKED: ATOM     34  N   UNL     1      36.937   8.527 123.225 -0.69 -0.00    +0.000 N 
DOCKED: ATOM     35  O   UNL     1      36.759   8.840 120.930 -2.63 -0.00    +0.000 OA
DOCKED: ATOM     36  H   UNL     1      37.132   8.916 124.108 -0.52 -0.00    +0.000 HD
DOCKED: BRANCH  31  34
DOCKED: ATOM     37  O   UNL     1      36.702   7.197 123.112 -1.89 -0.00    +0.000 OA
DOCKED: ATOM     38  H   UNL     1      36.811   6.927 122.187 -0.10 -0.00    +0.000 HD
DOCKED: ENDBRANCH  31  34
DOCKED: ENDBRANCH  27  30
DOCKED: ENDBRANCH  22  24
DOCKED: ENDBRANCH  19  21
DOCKED: ENDBRANCH   1  19
DOCKED: TORSDOF 10DOCKED: TER
DOCKED: ENDMDL
________________________________________________________________________________


	BEGINNING GENETIC ALGORITHM DOCKING 43 of 100
Run: 43 Seed: 1574823301 483053891 [ Run 43 of 100 GA/GALS ]
Beginning LAMARCKIAN GENETIC ALGORITHM (LGA), with a maximum of 2500000 energy evaluations.

Final-Value: -16.282


	FINAL GENETIC ALGORITHM DOCKED STATE
	_______________________________________________


Detailed state:  trans 36.116 17.199 122.485 quatxyzw -0.797279 -0.206948 -0.553990 -0.120890 center 1.858 0.218 -0.021 ntor 10 -39.3007 -162.8968 14.3477 -26.0599 -0.3820 -44.5071 -46.0914 180.0000 -111.7108 -180.0000
State:	 36.116  17.199 122.485  -0.803 -0.208 -0.558 -166.113    -39.30 -162.90   14.35  -26.06   -0.38  -44.51  -46.09  180.00 -111.71 -180.00

DOCKED: MODEL       43
DOCKED: USER    Run = 43
DOCKED: USER    DPF = ligand_dock.biased.dpf
DOCKED: USER  
DOCKED: USER    Estimated Free Energy of Binding    =  -11.24 kcal/mol  [=(1)+(2)+(3)-(4)]
DOCKED: USER    Estimated Inhibition Constant, Ki   =    5.74 nM (nanomolar)  [Temperature = 298.15 K]
DOCKED: USER    
DOCKED: USER    (1) Final Intermolecular Energy     =  -14.23 kcal/mol
DOCKED: USER        vdW + Hbond + desolv Energy     =  -14.23 kcal/mol
DOCKED: USER        Electrostatic Energy            =   +0.00 kcal/mol
DOCKED: USER    (2) Final Total Internal Energy     =   -2.06 kcal/mol
DOCKED: USER    (3) Torsional Free Energy           =   +2.98 kcal/mol
DOCKED: USER    (4) Unbound System's Energy  [=(2)] =   -2.06 kcal/mol
DOCKED: USER    
DOCKED: USER    
DOCKED: USER    NEWDPF move ligand.dum.pdbqt
DOCKED: USER    NEWDPF about 1.858000 0.218000 -0.021000
DOCKED: USER    NEWDPF tran0 36.116357 17.198974 122.484770
DOCKED: USER    NEWDPF quaternion0 -0.797279 -0.206948 -0.553990 -0.120890
DOCKED: USER    NEWDPF axisangle0 -0.803169 -0.208477 -0.558083 -166.113053
DOCKED: USER    NEWDPF quat0 -0.803169 -0.208477 -0.558083 -166.113053
DOCKED: USER    NEWDPF dihe0 -39.30 -162.90 14.35 -26.06 -0.38 -44.51 -46.09 180.00 -111.71 -180.00 
DOCKED: USER  keepresnum = 1 
DOCKED: USER  
DOCKED: REMARK  Name = 
DOCKED: REMARK  12 active torsions:
DOCKED: REMARK  status: ('A' for Active; 'I' for Inactive)
DOCKED: REMARK    1  A    between atoms: C_2  and  O_3
DOCKED: REMARK    2  A    between atoms: O_3  and  C_4
DOCKED: REMARK    3  A    between atoms: C_4  and  C_5
DOCKED: REMARK    4  A    between atoms: C_10  and  C_11
DOCKED: REMARK    5  A    between atoms: C_11  and  N_12
DOCKED: REMARK    6  A    between atoms: N_12  and  C_13
DOCKED: REMARK    7  A    between atoms: N_12  and  C_15
DOCKED: REMARK    8  A    between atoms: C_13  and  C_14
DOCKED: REMARK    9  A    between atoms: C_15  and  C_16
DOCKED: REMARK   10  A    between atoms: N_21  and  C_22
DOCKED: REMARK   11  A    between atoms: C_25  and  C_26
DOCKED: REMARK   12  A    between atoms: N_27  and  O_28
DOCKED: REMARK                            x       y       z     vdW  Elec       q    Type
DOCKED: REMARK                         _______ _______ _______ _____ _____    ______ ____
DOCKED: USER                              x       y       z     vdW  Elec       q    Type
DOCKED: USER                           _______ _______ _______ _____ _____    ______ ____
DOCKED: ROOT
DOCKED: ATOM      1  C   UNL     1      37.014  18.384 121.779 -0.14 -0.00    +0.000 C 
DOCKED: ENDROOT
DOCKED: BRANCH   1   2
DOCKED: ATOM      2  C   UNL     1      36.108  17.983 120.652 -0.17 -0.00    +0.000 A 
DOCKED: ATOM      3  C   UNL     1      36.387  16.835 119.895 -0.15 -0.00    +0.000 A 
DOCKED: ATOM      4  C   UNL     1      35.567  16.476 118.822 -0.03 -0.00    +0.000 A 
DOCKED: ATOM      5  C   UNL     1      34.463  17.271 118.482 +0.03 -0.00    +0.000 A 
DOCKED: ATOM      6  C   UNL     1      33.635  16.919 117.405 -0.10 -0.00    +0.000 A 
DOCKED: ATOM      7  C   UNL     1      32.533  17.722 117.065 -0.14 -0.00    +0.000 A 
DOCKED: ATOM      8  C   UNL     1      32.262  18.878 117.813 -0.17 -0.00    +0.000 A 
DOCKED: ATOM      9  C   UNL     1      33.083  19.236 118.886 -0.25 -0.00    +0.000 A 
DOCKED: ATOM     10  C   UNL     1      34.184  18.440 119.229 -0.23 -0.00    +0.000 A 
DOCKED: ATOM     11  C   UNL     1      35.013  18.791 120.305 -0.22 -0.00    +0.000 A 
DOCKED: ATOM     12  CM  UNL     1      35.287  17.633 119.565 +0.00 -0.00    +0.000 AC
DOCKED: ATOM     13  CM  UNL     1      33.360  18.078 118.147 +0.00 -0.00    +0.000 AC
DOCKED: BRANCH   7  12
DOCKED: ATOM     14  C   UNL     1      31.629  17.341 115.923 -0.12 -0.00    +0.000 C 
DOCKED: BRANCH  12  13
DOCKED: ATOM     15  N   UNL     1      30.893  16.100 116.248 -0.22 -0.00    +0.000 N 
DOCKED: ATOM     16  H   UNL     1      31.061  15.881 117.229 -0.01 -0.00    +0.000 HD
DOCKED: BRANCH  13  15
DOCKED: ATOM     17  C   UNL     1      31.418  14.944 115.484 -0.31 -0.00    +0.000 C 
DOCKED: ATOM     18  C   UNL     1      31.783  13.775 116.398 -0.48 -0.00    +0.000 C 
DOCKED: ENDBRANCH  13  15
DOCKED: BRANCH  13  17
DOCKED: ATOM     19  C   UNL     1      29.423  16.280 116.144 -0.28 -0.00    +0.000 C 
DOCKED: ATOM     20  C   UNL     1      28.730  16.593 117.478 -0.36 -0.00    +0.000 C 
DOCKED: ENDBRANCH  13  17
DOCKED: ENDBRANCH  12  13
DOCKED: ENDBRANCH   7  12
DOCKED: ENDBRANCH   1   2
DOCKED: BRANCH   1  19
DOCKED: ATOM     21  O   UNL     1      36.565  17.769 122.982 -0.20 -0.00    +0.000 OA
DOCKED: BRANCH  19  21
DOCKED: ATOM     22  O   UNL     1      36.245  15.896 124.291 -0.41 -0.00    +0.000 OA
DOCKED: ATOM     23  C   UNL     1      36.636  16.390 123.198 -0.33 -0.00    +0.000 C 
DOCKED: ATOM     24  N   UNL     1      37.200  15.554 122.179 -0.27 -0.00    +0.000 N 
DOCKED: ATOM     25  H   UNL     1      37.635  15.993 121.412 +0.00 -0.00    +0.000 HD
DOCKED: BRANCH  22  24
DOCKED: ATOM     26  C   UNL     1      37.171  14.116 122.201 -0.39 -0.00    +0.000 A 
DOCKED: ATOM     27  C   UNL     1      37.487  13.405 121.035 -0.40 -0.00    +0.000 A 
DOCKED: ATOM     28  C   UNL     1      37.446  12.008 121.023 -0.45 -0.00    +0.000 A 
DOCKED: ATOM     29  C   UNL     1      37.078  11.293 122.176 -0.48 -0.00    +0.000 A 
DOCKED: ATOM     30  C   UNL     1      36.726  12.009 123.334 -0.61 -0.00    +0.000 A 
DOCKED: ATOM     31  C   UNL     1      36.769  13.407 123.346 -0.52 -0.00    +0.000 A 
DOCKED: ATOM     32  CM  UNL     1      37.113  12.706 122.185 +0.00 -0.00    +0.000 AC
DOCKED: BRANCH  27  30
DOCKED: ATOM     33  C   UNL     1      37.034   9.811 122.146 -0.59 -0.00    +0.000 C 
DOCKED: ATOM     34  N   UNL     1      37.150   9.036 123.346 -0.57 -0.00    +0.000 N 
DOCKED: ATOM     35  O   UNL     1      36.907   9.215 121.042 -2.68 -0.00    +0.000 OA
DOCKED: ATOM     36  H   UNL     1      37.335   9.484 124.203 -0.62 -0.00    +0.000 HD
DOCKED: BRANCH  31  34
DOCKED: ATOM     37  O   UNL     1      37.006   7.690 123.307 -2.28 -0.00    +0.000 OA
DOCKED: ATOM     38  H   UNL     1      37.056   7.386 122.387 -0.07 -0.00    +0.000 HD
DOCKED: ENDBRANCH  31  34
DOCKED: ENDBRANCH  27  30
DOCKED: ENDBRANCH  22  24
DOCKED: ENDBRANCH  19  21
DOCKED: ENDBRANCH   1  19
DOCKED: TORSDOF 10DOCKED: TER
DOCKED: ENDMDL
________________________________________________________________________________


	BEGINNING GENETIC ALGORITHM DOCKING 44 of 100
Run: 44 Seed: 489275991 1222332452 [ Run 44 of 100 GA/GALS ]
Beginning LAMARCKIAN GENETIC ALGORITHM (LGA), with a maximum of 2500000 energy evaluations.

Final-Value: -18.401


	FINAL GENETIC ALGORITHM DOCKED STATE
	_______________________________________________


Detailed state:  trans 34.604 17.393 123.923 quatxyzw -0.404152 0.421703 -0.018974 -0.811460 center 1.858 0.218 -0.021 ntor 10 13.8492 -73.6018 55.1291 -24.1155 -167.5579 -0.2832 90.4523 76.8683 94.4844 -11.7933
State:	 34.604  17.393 123.923  -0.692  0.722 -0.032 -71.522     13.85  -73.60   55.13  -24.12 -167.56   -0.28   90.45   76.87   94.48  -11.79

DOCKED: MODEL       44
DOCKED: USER    Run = 44
DOCKED: USER    DPF = ligand_dock.biased.dpf
DOCKED: USER  
DOCKED: USER    Estimated Free Energy of Binding    =  -13.68 kcal/mol  [=(1)+(2)+(3)-(4)]
DOCKED: USER    Estimated Inhibition Constant, Ki   =   93.74 pM (picomolar)  [Temperature = 298.15 K]
DOCKED: USER    
DOCKED: USER    (1) Final Intermolecular Energy     =  -16.66 kcal/mol
DOCKED: USER        vdW + Hbond + desolv Energy     =  -16.66 kcal/mol
DOCKED: USER        Electrostatic Energy            =   +0.00 kcal/mol
DOCKED: USER    (2) Final Total Internal Energy     =   -1.74 kcal/mol
DOCKED: USER    (3) Torsional Free Energy           =   +2.98 kcal/mol
DOCKED: USER    (4) Unbound System's Energy  [=(2)] =   -1.74 kcal/mol
DOCKED: USER    
DOCKED: USER    
DOCKED: USER    NEWDPF move ligand.dum.pdbqt
DOCKED: USER    NEWDPF about 1.858000 0.218000 -0.021000
DOCKED: USER    NEWDPF tran0 34.604136 17.393247 123.922952
DOCKED: USER    NEWDPF quaternion0 -0.404152 0.421703 -0.018974 -0.811460
DOCKED: USER    NEWDPF axisangle0 -0.691558 0.721591 -0.032466 -71.522326
DOCKED: USER    NEWDPF quat0 -0.691558 0.721591 -0.032466 -71.522326
DOCKED: USER    NEWDPF dihe0 13.85 -73.60 55.13 -24.12 -167.56 -0.28 90.45 76.87 94.48 -11.79 
DOCKED: USER  keepresnum = 1 
DOCKED: USER  
DOCKED: REMARK  Name = 
DOCKED: REMARK  12 active torsions:
DOCKED: REMARK  status: ('A' for Active; 'I' for Inactive)
DOCKED: REMARK    1  A    between atoms: C_2  and  O_3
DOCKED: REMARK    2  A    between atoms: O_3  and  C_4
DOCKED: REMARK    3  A    between atoms: C_4  and  C_5
DOCKED: REMARK    4  A    between atoms: C_10  and  C_11
DOCKED: REMARK    5  A    between atoms: C_11  and  N_12
DOCKED: REMARK    6  A    between atoms: N_12  and  C_13
DOCKED: REMARK    7  A    between atoms: N_12  and  C_15
DOCKED: REMARK    8  A    between atoms: C_13  and  C_14
DOCKED: REMARK    9  A    between atoms: C_15  and  C_16
DOCKED: REMARK   10  A    between atoms: N_21  and  C_22
DOCKED: REMARK   11  A    between atoms: C_25  and  C_26
DOCKED: REMARK   12  A    between atoms: N_27  and  O_28
DOCKED: REMARK                            x       y       z     vdW  Elec       q    Type
DOCKED: REMARK                         _______ _______ _______ _____ _____    ______ ____
DOCKED: USER                              x       y       z     vdW  Elec       q    Type
DOCKED: USER                           _______ _______ _______ _____ _____    ______ ____
DOCKED: ROOT
DOCKED: ATOM      1  C   UNL     1      35.757  17.969 124.947 -0.28 -0.00    +0.000 C 
DOCKED: ENDROOT
DOCKED: BRANCH   1   2
DOCKED: ATOM      2  C   UNL     1      34.522  18.084 125.791 -0.30 -0.00    +0.000 A 
DOCKED: ATOM      3  C   UNL     1      34.106  17.005 126.585 -0.25 -0.00    +0.000 A 
DOCKED: ATOM      4  C   UNL     1      32.938  17.093 127.347 -0.36 -0.00    +0.000 A 
DOCKED: ATOM      5  C   UNL     1      32.160  18.260 127.312 -0.05 -0.00    +0.000 A 
DOCKED: ATOM      6  C   UNL     1      30.985  18.357 128.073 -0.24 -0.00    +0.000 A 
DOCKED: ATOM      7  C   UNL     1      30.208  19.526 128.031 -0.30 -0.00    +0.000 A 
DOCKED: ATOM      8  C   UNL     1      30.616  20.601 127.225 -0.26 -0.00    +0.000 A 
DOCKED: ATOM      9  C   UNL     1      31.784  20.512 126.465 -0.08 -0.00    +0.000 A 
DOCKED: ATOM     10  C   UNL     1      32.564  19.347 126.501 -0.24 -0.00    +0.000 A 
DOCKED: ATOM     11  C   UNL     1      33.739  19.249 125.741 -0.23 -0.00    +0.000 A 
DOCKED: ATOM     12  CM  UNL     1      33.338  18.173 126.546 -0.02 -0.00    +0.000 AC
DOCKED: ATOM     13  CM  UNL     1      31.386  19.434 127.267 +0.00 -0.00    +0.000 AC
DOCKED: BRANCH   7  12
DOCKED: ATOM     14  C   UNL     1      28.954  19.646 128.858 -0.34 -0.00    +0.000 C 
DOCKED: BRANCH  12  13
DOCKED: ATOM     15  N   UNL     1      29.149  20.640 129.935 -0.30 -0.00    +0.000 N 
DOCKED: ATOM     16  H   UNL     1      30.018  21.141 129.750 +0.01 -0.00    +0.000 HD
DOCKED: BRANCH  13  15
DOCKED: ATOM     17  C   UNL     1      29.337  19.984 131.250 -0.35 -0.00    +0.000 C 
DOCKED: ATOM     18  C   UNL     1      29.539  21.002 132.372 -0.26 -0.00    +0.000 C 
DOCKED: ENDBRANCH  13  15
DOCKED: BRANCH  13  17
DOCKED: ATOM     19  C   UNL     1      28.097  21.688 129.924 -0.40 -0.00    +0.000 C 
DOCKED: ATOM     20  C   UNL     1      27.146  21.615 128.720 -0.57 -0.00    +0.000 C 
DOCKED: ENDBRANCH  13  17
DOCKED: ENDBRANCH  12  13
DOCKED: ENDBRANCH   7  12
DOCKED: ENDBRANCH   1   2
DOCKED: BRANCH   1  19
DOCKED: ATOM     21  O   UNL     1      35.454  17.222 123.773 -0.34 -0.00    +0.000 OA
DOCKED: BRANCH  19  21
DOCKED: ATOM     22  O   UNL     1      34.571  15.147 124.263 -0.66 -0.00    +0.000 OA
DOCKED: ATOM     23  C   UNL     1      35.495  15.826 123.735 -0.48 -0.00    +0.000 C 
DOCKED: ATOM     24  N   UNL     1      36.621  15.178 123.129 -0.39 -0.00    +0.000 N 
DOCKED: ATOM     25  H   UNL     1      37.390  15.737 122.872 -0.01 -0.00    +0.000 HD
DOCKED: BRANCH  22  24
DOCKED: ATOM     26  C   UNL     1      36.703  13.766 122.870 -0.47 -0.00    +0.000 A 
DOCKED: ATOM     27  C   UNL     1      36.552  12.863 123.931 -0.42 -0.00    +0.000 A 
DOCKED: ATOM     28  C   UNL     1      36.648  11.486 123.710 -0.61 -0.00    +0.000 A 
DOCKED: ATOM     29  C   UNL     1      36.907  10.984 122.423 -0.53 -0.00    +0.000 A 
DOCKED: ATOM     30  C   UNL     1      37.094  11.893 121.366 -0.49 -0.00    +0.000 A 
DOCKED: ATOM     31  C   UNL     1      36.997  13.270 121.587 -0.39 -0.00    +0.000 A 
DOCKED: ATOM     32  CM  UNL     1      36.817  12.377 122.648 +0.00 -0.00    +0.000 AC
DOCKED: BRANCH  27  30
DOCKED: ATOM     33  C   UNL     1      37.011   9.521 122.205 -0.63 -0.00    +0.000 C 
DOCKED: ATOM     34  N   UNL     1      37.069   8.604 123.304 -0.68 -0.00    +0.000 N 
DOCKED: ATOM     35  O   UNL     1      37.064   9.070 121.028 -2.73 -0.00    +0.000 OA
DOCKED: ATOM     36  H   UNL     1      37.115   8.946 124.226 -0.55 -0.00    +0.000 HD
DOCKED: BRANCH  31  34
DOCKED: ATOM     37  O   UNL     1      37.062   7.267 123.081 -2.09 -0.00    +0.000 OA
DOCKED: ATOM     38  H   UNL     1      37.783   7.037 122.474 -0.40 -0.00    +0.000 HD
DOCKED: ENDBRANCH  31  34
DOCKED: ENDBRANCH  27  30
DOCKED: ENDBRANCH  22  24
DOCKED: ENDBRANCH  19  21
DOCKED: ENDBRANCH   1  19
DOCKED: TORSDOF 10DOCKED: TER
DOCKED: ENDMDL
________________________________________________________________________________


	BEGINNING GENETIC ALGORITHM DOCKING 45 of 100
Run: 45 Seed: 1011505377 1973665123 [ Run 45 of 100 GA/GALS ]
Beginning LAMARCKIAN GENETIC ALGORITHM (LGA), with a maximum of 2500000 energy evaluations.

Final-Value: -16.756


	FINAL GENETIC ALGORITHM DOCKED STATE
	_______________________________________________


Detailed state:  trans 35.662 17.307 124.101 quatxyzw -0.185599 0.878176 0.377658 0.227454 center 1.858 0.218 -0.021 ntor 10 96.4222 -150.4679 28.3313 -23.8680 -178.6725 -179.9714 120.4513 -152.2169 98.7538 77.0705
State:	 35.662  17.307 124.101  -0.191  0.902  0.388 153.706     96.42 -150.47   28.33  -23.87 -178.67 -179.97  120.45 -152.22   98.75   77.07

DOCKED: MODEL       45
DOCKED: USER    Run = 45
DOCKED: USER    DPF = ligand_dock.biased.dpf
DOCKED: USER  
DOCKED: USER    Estimated Free Energy of Binding    =  -11.62 kcal/mol  [=(1)+(2)+(3)-(4)]
DOCKED: USER    Estimated Inhibition Constant, Ki   =    3.05 nM (nanomolar)  [Temperature = 298.15 K]
DOCKED: USER    
DOCKED: USER    (1) Final Intermolecular Energy     =  -14.60 kcal/mol
DOCKED: USER        vdW + Hbond + desolv Energy     =  -14.60 kcal/mol
DOCKED: USER        Electrostatic Energy            =   +0.00 kcal/mol
DOCKED: USER    (2) Final Total Internal Energy     =   -2.16 kcal/mol
DOCKED: USER    (3) Torsional Free Energy           =   +2.98 kcal/mol
DOCKED: USER    (4) Unbound System's Energy  [=(2)] =   -2.16 kcal/mol
DOCKED: USER    
DOCKED: USER    
DOCKED: USER    NEWDPF move ligand.dum.pdbqt
DOCKED: USER    NEWDPF about 1.858000 0.218000 -0.021000
DOCKED: USER    NEWDPF tran0 35.661808 17.306602 124.101493
DOCKED: USER    NEWDPF quaternion0 -0.185599 0.878176 0.377658 0.227454
DOCKED: USER    NEWDPF axisangle0 -0.190595 0.901813 0.387823 153.705577
DOCKED: USER    NEWDPF quat0 -0.190595 0.901813 0.387823 153.705577
DOCKED: USER    NEWDPF dihe0 96.42 -150.47 28.33 -23.87 -178.67 -179.97 120.45 -152.22 98.75 77.07 
DOCKED: USER  keepresnum = 1 
DOCKED: USER  
DOCKED: REMARK  Name = 
DOCKED: REMARK  12 active torsions:
DOCKED: REMARK  status: ('A' for Active; 'I' for Inactive)
DOCKED: REMARK    1  A    between atoms: C_2  and  O_3
DOCKED: REMARK    2  A    between atoms: O_3  and  C_4
DOCKED: REMARK    3  A    between atoms: C_4  and  C_5
DOCKED: REMARK    4  A    between atoms: C_10  and  C_11
DOCKED: REMARK    5  A    between atoms: C_11  and  N_12
DOCKED: REMARK    6  A    between atoms: N_12  and  C_13
DOCKED: REMARK    7  A    between atoms: N_12  and  C_15
DOCKED: REMARK    8  A    between atoms: C_13  and  C_14
DOCKED: REMARK    9  A    between atoms: C_15  and  C_16
DOCKED: REMARK   10  A    between atoms: N_21  and  C_22
DOCKED: REMARK   11  A    between atoms: C_25  and  C_26
DOCKED: REMARK   12  A    between atoms: N_27  and  O_28
DOCKED: REMARK                            x       y       z     vdW  Elec       q    Type
DOCKED: REMARK                         _______ _______ _______ _____ _____    ______ ____
DOCKED: USER                              x       y       z     vdW  Elec       q    Type
DOCKED: USER                           _______ _______ _______ _____ _____    ______ ____
DOCKED: ROOT
DOCKED: ATOM      1  C   UNL     1      35.084  17.828 122.652 -0.34 -0.00    +0.000 C 
DOCKED: ENDROOT
DOCKED: BRANCH   1   2
DOCKED: ATOM      2  C   UNL     1      36.543  18.155 122.527 -0.17 -0.00    +0.000 A 
DOCKED: ATOM      3  C   UNL     1      37.045  18.701 121.336 -0.11 -0.00    +0.000 A 
DOCKED: ATOM      4  C   UNL     1      38.408  18.975 121.201 -0.04 -0.00    +0.000 A 
DOCKED: ATOM      5  C   UNL     1      39.292  18.692 122.253 -0.06 -0.00    +0.000 A 
DOCKED: ATOM      6  C   UNL     1      40.663  18.962 122.125 -0.06 -0.00    +0.000 A 
DOCKED: ATOM      7  C   UNL     1      41.544  18.672 123.180 -0.16 -0.00    +0.000 A 
DOCKED: ATOM      8  C   UNL     1      41.044  18.112 124.366 -0.28 -0.00    +0.000 A 
DOCKED: ATOM      9  C   UNL     1      39.681  17.839 124.500 -0.23 -0.00    +0.000 A 
DOCKED: ATOM     10  C   UNL     1      38.796  18.126 123.451 -0.15 -0.00    +0.000 A 
DOCKED: ATOM     11  C   UNL     1      37.425  17.855 123.577 -0.18 -0.00    +0.000 A 
DOCKED: ATOM     12  CM  UNL     1      37.918  18.417 122.391 +0.00 -0.00    +0.000 AC
DOCKED: ATOM     13  CM  UNL     1      40.170  18.400 123.313 +0.00 -0.00    +0.000 AC
DOCKED: BRANCH   7  12
DOCKED: ATOM     14  C   UNL     1      43.015  18.976 123.059 -0.13 -0.00    +0.000 C 
DOCKED: BRANCH  12  13
DOCKED: ATOM     15  N   UNL     1      43.638  18.083 122.059 -0.18 -0.00    +0.000 N 
DOCKED: ATOM     16  H   UNL     1      42.893  17.604 121.555 +0.00 -0.00    +0.000 HD
DOCKED: BRANCH  13  15
DOCKED: ATOM     17  C   UNL     1      44.433  17.015 122.709 -0.34 -0.00    +0.000 C 
DOCKED: ATOM     18  C   UNL     1      45.920  17.364 122.764 -0.34 -0.00    +0.000 C 
DOCKED: ENDBRANCH  13  15
DOCKED: BRANCH  13  17
DOCKED: ATOM     19  C   UNL     1      44.375  18.841 121.016 -0.08 -0.00    +0.000 C 
DOCKED: ATOM     20  C   UNL     1      43.495  19.355 119.868 -0.03 -0.00    +0.000 C 
DOCKED: ENDBRANCH  13  17
DOCKED: ENDBRANCH  12  13
DOCKED: ENDBRANCH   7  12
DOCKED: ENDBRANCH   1   2
DOCKED: BRANCH   1  19
DOCKED: ATOM     21  O   UNL     1      34.880  17.026 123.811 -0.41 -0.00    +0.000 OA
DOCKED: BRANCH  19  21
DOCKED: ATOM     22  O   UNL     1      34.480  14.907 124.632 -0.61 -0.00    +0.000 OA
DOCKED: ATOM     23  C   UNL     1      35.108  15.648 123.824 -0.54 -0.00    +0.000 C 
DOCKED: ATOM     24  N   UNL     1      36.092  15.095 122.941 -0.38 -0.00    +0.000 N 
DOCKED: ATOM     25  H   UNL     1      36.667  15.721 122.443 -0.00 -0.00    +0.000 HD
DOCKED: BRANCH  22  24
DOCKED: ATOM     26  C   UNL     1      36.295  13.687 122.731 -0.38 -0.00    +0.000 A 
DOCKED: ATOM     27  C   UNL     1      35.963  12.785 123.752 -0.54 -0.00    +0.000 A 
DOCKED: ATOM     28  C   UNL     1      36.171  11.414 123.582 -0.61 -0.00    +0.000 A 
DOCKED: ATOM     29  C   UNL     1      36.725  10.916 122.391 -0.57 -0.00    +0.000 A 
DOCKED: ATOM     30  C   UNL     1      37.091  11.825 121.382 -0.49 -0.00    +0.000 A 
DOCKED: ATOM     31  C   UNL     1      36.882  13.197 121.551 -0.36 -0.00    +0.000 A 
DOCKED: ATOM     32  CM  UNL     1      36.521  12.304 122.565 +0.00 -0.00    +0.000 AC
DOCKED: BRANCH  27  30
DOCKED: ATOM     33  C   UNL     1      36.944   9.458 122.227 -0.65 -0.00    +0.000 C 
DOCKED: ATOM     34  N   UNL     1      37.041   8.585 123.359 -0.67 -0.00    +0.000 N 
DOCKED: ATOM     35  O   UNL     1      37.062   8.973 121.069 -2.71 -0.00    +0.000 OA
DOCKED: ATOM     36  H   UNL     1      37.036   8.960 124.269 -0.53 -0.00    +0.000 HD
DOCKED: BRANCH  31  34
DOCKED: ATOM     37  O   UNL     1      37.139   7.246 123.183 -2.01 -0.00    +0.000 OA
DOCKED: ATOM     38  H   UNL     1      37.566   7.062 122.332 -0.26 -0.00    +0.000 HD
DOCKED: ENDBRANCH  31  34
DOCKED: ENDBRANCH  27  30
DOCKED: ENDBRANCH  22  24
DOCKED: ENDBRANCH  19  21
DOCKED: ENDBRANCH   1  19
DOCKED: TORSDOF 10DOCKED: TER
DOCKED: ENDMDL
________________________________________________________________________________


	BEGINNING GENETIC ALGORITHM DOCKING 46 of 100
Run: 46 Seed: 158435028 1086533791 [ Run 46 of 100 GA/GALS ]
Beginning LAMARCKIAN GENETIC ALGORITHM (LGA), with a maximum of 2500000 energy evaluations.

Final-Value: -15.952


	FINAL GENETIC ALGORITHM DOCKED STATE
	_______________________________________________


Detailed state:  trans 36.027 17.365 124.296 quatxyzw 0.258876 -0.867295 -0.345898 -0.247261 center 1.858 0.218 -0.021 ntor 10 -121.9936 -180.0000 19.5873 -61.2447 -173.2849 -180.0000 130.2734 -162.4547 87.7270 16.2090
State:	 36.027  17.365 124.296   0.267 -0.895 -0.357 -151.369   -121.99 -180.00   19.59  -61.24 -173.28 -180.00  130.27 -162.45   87.73   16.21

DOCKED: MODEL       46
DOCKED: USER    Run = 46
DOCKED: USER    DPF = ligand_dock.biased.dpf
DOCKED: USER  
DOCKED: USER    Estimated Free Energy of Binding    =  -10.90 kcal/mol  [=(1)+(2)+(3)-(4)]
DOCKED: USER    Estimated Inhibition Constant, Ki   =   10.32 nM (nanomolar)  [Temperature = 298.15 K]
DOCKED: USER    
DOCKED: USER    (1) Final Intermolecular Energy     =  -13.88 kcal/mol
DOCKED: USER        vdW + Hbond + desolv Energy     =  -13.88 kcal/mol
DOCKED: USER        Electrostatic Energy            =   +0.00 kcal/mol
DOCKED: USER    (2) Final Total Internal Energy     =   -2.07 kcal/mol
DOCKED: USER    (3) Torsional Free Energy           =   +2.98 kcal/mol
DOCKED: USER    (4) Unbound System's Energy  [=(2)] =   -2.07 kcal/mol
DOCKED: USER    
DOCKED: USER    
DOCKED: USER    NEWDPF move ligand.dum.pdbqt
DOCKED: USER    NEWDPF about 1.858000 0.218000 -0.021000
DOCKED: USER    NEWDPF tran0 36.027479 17.365327 124.296290
DOCKED: USER    NEWDPF quaternion0 0.258876 -0.867295 -0.345898 -0.247261
DOCKED: USER    NEWDPF axisangle0 0.267172 -0.895088 -0.356982 -151.369068
DOCKED: USER    NEWDPF quat0 0.267172 -0.895088 -0.356982 -151.369068
DOCKED: USER    NEWDPF dihe0 -121.99 -180.00 19.59 -61.24 -173.28 -180.00 130.27 -162.45 87.73 16.21 
DOCKED: USER  keepresnum = 1 
DOCKED: USER  
DOCKED: REMARK  Name = 
DOCKED: REMARK  12 active torsions:
DOCKED: REMARK  status: ('A' for Active; 'I' for Inactive)
DOCKED: REMARK    1  A    between atoms: C_2  and  O_3
DOCKED: REMARK    2  A    between atoms: O_3  and  C_4
DOCKED: REMARK    3  A    between atoms: C_4  and  C_5
DOCKED: REMARK    4  A    between atoms: C_10  and  C_11
DOCKED: REMARK    5  A    between atoms: C_11  and  N_12
DOCKED: REMARK    6  A    between atoms: N_12  and  C_13
DOCKED: REMARK    7  A    between atoms: N_12  and  C_15
DOCKED: REMARK    8  A    between atoms: C_13  and  C_14
DOCKED: REMARK    9  A    between atoms: C_15  and  C_16
DOCKED: REMARK   10  A    between atoms: N_21  and  C_22
DOCKED: REMARK   11  A    between atoms: C_25  and  C_26
DOCKED: REMARK   12  A    between atoms: N_27  and  O_28
DOCKED: REMARK                            x       y       z     vdW  Elec       q    Type
DOCKED: REMARK                         _______ _______ _______ _____ _____    ______ ____
DOCKED: USER                              x       y       z     vdW  Elec       q    Type
DOCKED: USER                           _______ _______ _______ _____ _____    ______ ____
DOCKED: ROOT
DOCKED: ATOM      1  C   UNL     1      35.415  17.758 122.820 -0.31 -0.00    +0.000 C 
DOCKED: ENDROOT
DOCKED: BRANCH   1   2
DOCKED: ATOM      2  C   UNL     1      36.806  18.315 122.725 -0.15 -0.00    +0.000 A 
DOCKED: ATOM      3  C   UNL     1      37.709  17.801 121.783 -0.10 -0.00    +0.000 A 
DOCKED: ATOM      4  C   UNL     1      39.016  18.290 121.713 -0.06 -0.00    +0.000 A 
DOCKED: ATOM      5  C   UNL     1      39.441  19.292 122.597 -0.05 -0.00    +0.000 A 
DOCKED: ATOM      6  C   UNL     1      40.753  19.789 122.535 -0.04 -0.00    +0.000 A 
DOCKED: ATOM      7  C   UNL     1      41.175  20.789 123.426 -0.04 -0.00    +0.000 A 
DOCKED: ATOM      8  C   UNL     1      40.276  21.293 124.379 -0.03 -0.00    +0.000 A 
DOCKED: ATOM      9  C   UNL     1      38.970  20.803 124.447 -0.04 -0.00    +0.000 A 
DOCKED: ATOM     10  C   UNL     1      38.542  19.804 123.561 -0.06 -0.00    +0.000 A 
DOCKED: ATOM     11  C   UNL     1      37.231  19.307 123.623 -0.12 -0.00    +0.000 A 
DOCKED: ATOM     12  CM  UNL     1      38.124  18.802 122.667 +0.00 -0.00    +0.000 AC
DOCKED: ATOM     13  CM  UNL     1      39.859  20.295 123.491 +0.00 -0.00    +0.000 AC
DOCKED: BRANCH   7  12
DOCKED: ATOM     14  C   UNL     1      42.575  21.341 123.354 -0.06 -0.00    +0.000 C 
DOCKED: BRANCH  12  13
DOCKED: ATOM     15  N   UNL     1      43.550  20.311 123.773 -0.11 -0.00    +0.000 N 
DOCKED: ATOM     16  H   UNL     1      43.075  19.662 124.400 -0.56 -0.00    +0.000 HD
DOCKED: BRANCH  13  15
DOCKED: ATOM     17  C   UNL     1      44.654  20.901 124.566 -0.07 -0.00    +0.000 C 
DOCKED: ATOM     18  C   UNL     1      44.140  21.896 125.606 -0.12 -0.00    +0.000 C 
DOCKED: ENDBRANCH  13  15
DOCKED: BRANCH  13  17
DOCKED: ATOM     19  C   UNL     1      44.001  19.474 122.633 -0.14 -0.00    +0.000 C 
DOCKED: ATOM     20  C   UNL     1      43.554  18.007 122.710 -0.25 -0.00    +0.000 C 
DOCKED: ENDBRANCH  13  17
DOCKED: ENDBRANCH  12  13
DOCKED: ENDBRANCH   7  12
DOCKED: ENDBRANCH   1   2
DOCKED: BRANCH   1  19
DOCKED: ATOM     21  O   UNL     1      35.310  16.956 123.993 -0.38 -0.00    +0.000 OA
DOCKED: BRANCH  19  21
DOCKED: ATOM     22  O   UNL     1      35.149  14.863 124.950 -0.54 -0.00    +0.000 OA
DOCKED: ATOM     23  C   UNL     1      35.544  15.579 123.988 -0.49 -0.00    +0.000 C 
DOCKED: ATOM     24  N   UNL     1      36.276  15.000 122.900 -0.38 -0.00    +0.000 N 
DOCKED: ATOM     25  H   UNL     1      36.700  15.610 122.254 -0.00 -0.00    +0.000 HD
DOCKED: BRANCH  22  24
DOCKED: ATOM     26  C   UNL     1      36.431  13.586 122.687 -0.41 -0.00    +0.000 A 
DOCKED: ATOM     27  C   UNL     1      36.172  12.700 123.742 -0.56 -0.00    +0.000 A 
DOCKED: ATOM     28  C   UNL     1      36.335  11.323 123.568 -0.61 -0.00    +0.000 A 
DOCKED: ATOM     29  C   UNL     1      36.770  10.804 122.337 -0.56 -0.00    +0.000 A 
DOCKED: ATOM     30  C   UNL     1      37.064  11.697 121.291 -0.48 -0.00    +0.000 A 
DOCKED: ATOM     31  C   UNL     1      36.899  13.074 121.465 -0.38 -0.00    +0.000 A 
DOCKED: ATOM     32  CM  UNL     1      36.612  12.197 122.515 +0.00 -0.00    +0.000 AC
DOCKED: BRANCH  27  30
DOCKED: ATOM     33  C   UNL     1      36.944   9.340 122.169 -0.66 -0.00    +0.000 C 
DOCKED: ATOM     34  N   UNL     1      37.009   8.461 123.298 -0.70 -0.00    +0.000 N 
DOCKED: ATOM     35  O   UNL     1      37.050   8.856 121.009 -2.70 -0.00    +0.000 OA
DOCKED: ATOM     36  H   UNL     1      37.013   8.833 124.210 -0.52 -0.00    +0.000 HD
DOCKED: BRANCH  31  34
DOCKED: ATOM     37  O   UNL     1      37.066   7.120 123.118 -1.93 -0.00    +0.000 OA
DOCKED: ATOM     38  H   UNL     1      37.360   6.927 122.214 -0.23 -0.00    +0.000 HD
DOCKED: ENDBRANCH  31  34
DOCKED: ENDBRANCH  27  30
DOCKED: ENDBRANCH  22  24
DOCKED: ENDBRANCH  19  21
DOCKED: ENDBRANCH   1  19
DOCKED: TORSDOF 10DOCKED: TER
DOCKED: ENDMDL
________________________________________________________________________________


	BEGINNING GENETIC ALGORITHM DOCKING 47 of 100
Run: 47 Seed: 1963612291 958150046 [ Run 47 of 100 GA/GALS ]
Beginning LAMARCKIAN GENETIC ALGORITHM (LGA), with a maximum of 2500000 energy evaluations.

Final-Value: -17.983


	FINAL GENETIC ALGORITHM DOCKED STATE
	_______________________________________________


Detailed state:  trans 37.490 17.213 122.901 quatxyzw 0.919254 -0.092901 -0.378706 0.054073 center 1.858 0.218 -0.021 ntor 10 -111.2510 113.4681 8.1146 176.9853 176.0268 -8.8073 -96.6551 157.9050 -81.1972 2.6029
State:	 37.490  17.213 122.901   0.921 -0.093 -0.379 173.801   -111.25  113.47    8.11  176.99  176.03   -8.81  -96.66  157.91  -81.20    2.60

DOCKED: MODEL       47
DOCKED: USER    Run = 47
DOCKED: USER    DPF = ligand_dock.biased.dpf
DOCKED: USER  
DOCKED: USER    Estimated Free Energy of Binding    =  -12.66 kcal/mol  [=(1)+(2)+(3)-(4)]
DOCKED: USER    Estimated Inhibition Constant, Ki   =  523.32 pM (picomolar)  [Temperature = 298.15 K]
DOCKED: USER    
DOCKED: USER    (1) Final Intermolecular Energy     =  -15.64 kcal/mol
DOCKED: USER        vdW + Hbond + desolv Energy     =  -15.64 kcal/mol
DOCKED: USER        Electrostatic Energy            =   +0.00 kcal/mol
DOCKED: USER    (2) Final Total Internal Energy     =   -2.34 kcal/mol
DOCKED: USER    (3) Torsional Free Energy           =   +2.98 kcal/mol
DOCKED: USER    (4) Unbound System's Energy  [=(2)] =   -2.34 kcal/mol
DOCKED: USER    
DOCKED: USER    
DOCKED: USER    NEWDPF move ligand.dum.pdbqt
DOCKED: USER    NEWDPF about 1.858000 0.218000 -0.021000
DOCKED: USER    NEWDPF tran0 37.490309 17.213327 122.900515
DOCKED: USER    NEWDPF quaternion0 0.919254 -0.092901 -0.378706 0.054073
DOCKED: USER    NEWDPF axisangle0 0.920601 -0.093037 -0.379261 173.800629
DOCKED: USER    NEWDPF quat0 0.920601 -0.093037 -0.379261 173.800629
DOCKED: USER    NEWDPF dihe0 -111.25 113.47 8.11 176.99 176.03 -8.81 -96.66 157.91 -81.20 2.60 
DOCKED: USER  keepresnum = 1 
DOCKED: USER  
DOCKED: REMARK  Name = 
DOCKED: REMARK  12 active torsions:
DOCKED: REMARK  status: ('A' for Active; 'I' for Inactive)
DOCKED: REMARK    1  A    between atoms: C_2  and  O_3
DOCKED: REMARK    2  A    between atoms: O_3  and  C_4
DOCKED: REMARK    3  A    between atoms: C_4  and  C_5
DOCKED: REMARK    4  A    between atoms: C_10  and  C_11
DOCKED: REMARK    5  A    between atoms: C_11  and  N_12
DOCKED: REMARK    6  A    between atoms: N_12  and  C_13
DOCKED: REMARK    7  A    between atoms: N_12  and  C_15
DOCKED: REMARK    8  A    between atoms: C_13  and  C_14
DOCKED: REMARK    9  A    between atoms: C_15  and  C_16
DOCKED: REMARK   10  A    between atoms: N_21  and  C_22
DOCKED: REMARK   11  A    between atoms: C_25  and  C_26
DOCKED: REMARK   12  A    between atoms: N_27  and  O_28
DOCKED: REMARK                            x       y       z     vdW  Elec       q    Type
DOCKED: REMARK                         _______ _______ _______ _____ _____    ______ ____
DOCKED: USER                              x       y       z     vdW  Elec       q    Type
DOCKED: USER                           _______ _______ _______ _____ _____    ______ ____
DOCKED: ROOT
DOCKED: ATOM      1  C   UNL     1      36.491  18.131 121.970 -0.19 -0.00    +0.000 C 
DOCKED: ENDROOT
DOCKED: BRANCH   1   2
DOCKED: ATOM      2  C   UNL     1      35.896  18.329 123.333 -0.22 -0.00    +0.000 A 
DOCKED: ATOM      3  C   UNL     1      36.130  19.519 124.040 -0.17 -0.00    +0.000 A 
DOCKED: ATOM      4  C   UNL     1      35.608  19.695 125.323 -0.17 -0.00    +0.000 A 
DOCKED: ATOM      5  C   UNL     1      34.855  18.675 125.924 -0.23 -0.00    +0.000 A 
DOCKED: ATOM      6  C   UNL     1      34.328  18.843 127.215 -0.17 -0.00    +0.000 A 
DOCKED: ATOM      7  C   UNL     1      33.579  17.817 127.813 -0.25 -0.00    +0.000 A 
DOCKED: ATOM      8  C   UNL     1      33.357  16.621 127.112 -0.39 -0.00    +0.000 A 
DOCKED: ATOM      9  C   UNL     1      33.879  16.446 125.828 -0.35 -0.00    +0.000 A 
DOCKED: ATOM     10  C   UNL     1      34.628  17.466 125.225 -0.35 -0.00    +0.000 A 
DOCKED: ATOM     11  C   UNL     1      35.156  17.300 123.936 -0.34 -0.00    +0.000 A 
DOCKED: ATOM     12  CM  UNL     1      35.379  18.497 124.630 -0.25 -0.00    +0.000 AC
DOCKED: ATOM     13  CM  UNL     1      34.105  17.644 126.520 -0.07 -0.00    +0.000 AC
DOCKED: BRANCH   7  12
DOCKED: ATOM     14  C   UNL     1      32.994  17.996 129.190 -0.21 -0.00    +0.000 C 
DOCKED: BRANCH  12  13
DOCKED: ATOM     15  N   UNL     1      31.548  18.286 129.094 -0.23 -0.00    +0.000 N 
DOCKED: ATOM     16  H   UNL     1      31.295  18.898 129.869 +0.01 -0.00    +0.000 HD
DOCKED: BRANCH  13  15
DOCKED: ATOM     17  C   UNL     1      30.736  17.059 129.271 -0.46 -0.00    +0.000 C 
DOCKED: ATOM     18  C   UNL     1      31.066  16.341 130.579 -0.32 -0.00    +0.000 C 
DOCKED: ENDBRANCH  13  15
DOCKED: BRANCH  13  17
DOCKED: ATOM     19  C   UNL     1      31.214  19.063 127.874 -0.28 -0.00    +0.000 C 
DOCKED: ATOM     20  C   UNL     1      29.723  19.399 127.726 -0.44 -0.00    +0.000 C 
DOCKED: ENDBRANCH  13  17
DOCKED: ENDBRANCH  12  13
DOCKED: ENDBRANCH   7  12
DOCKED: ENDBRANCH   1   2
DOCKED: BRANCH   1  19
DOCKED: ATOM     21  O   UNL     1      37.744  17.467 122.097 -0.14 -0.00    +0.000 OA
DOCKED: BRANCH  19  21
DOCKED: ATOM     22  O   UNL     1      39.018  15.610 121.593 -0.26 -0.00    +0.000 OA
DOCKED: ATOM     23  C   UNL     1      37.892  16.091 121.903 -0.24 -0.00    +0.000 C 
DOCKED: ATOM     24  N   UNL     1      36.742  15.243 122.016 -0.28 -0.00    +0.000 N 
DOCKED: ATOM     25  H   UNL     1      35.860  15.673 122.102 -0.01 -0.00    +0.000 HD
DOCKED: BRANCH  22  24
DOCKED: ATOM     26  C   UNL     1      36.790  13.806 122.014 -0.32 -0.00    +0.000 A 
DOCKED: ATOM     27  C   UNL     1      36.391  13.104 123.159 -0.54 -0.00    +0.000 A 
DOCKED: ATOM     28  C   UNL     1      36.447  11.708 123.191 -0.62 -0.00    +0.000 A 
DOCKED: ATOM     29  C   UNL     1      36.913  10.985 122.080 -0.51 -0.00    +0.000 A 
DOCKED: ATOM     30  C   UNL     1      37.347  11.692 120.944 -0.42 -0.00    +0.000 A 
DOCKED: ATOM     31  C   UNL     1      37.289  13.089 120.913 -0.42 -0.00    +0.000 A 
DOCKED: ATOM     32  CM  UNL     1      36.863  12.397 122.051 +0.00 -0.00    +0.000 AC
DOCKED: BRANCH  27  30
DOCKED: ATOM     33  C   UNL     1      36.972   9.503 122.130 -0.64 -0.00    +0.000 C 
DOCKED: ATOM     34  N   UNL     1      37.119   8.803 123.371 -0.62 -0.00    +0.000 N 
DOCKED: ATOM     35  O   UNL     1      36.905   8.842 121.058 -2.66 -0.00    +0.000 OA
DOCKED: ATOM     36  H   UNL     1      37.257   9.308 124.206 -0.61 -0.00    +0.000 HD
DOCKED: BRANCH  31  34
DOCKED: ATOM     37  O   UNL     1      37.068   7.450 123.403 -2.16 -0.00    +0.000 OA
DOCKED: ATOM     38  H   UNL     1      37.056   7.106 122.496 -0.10 -0.00    +0.000 HD
DOCKED: ENDBRANCH  31  34
DOCKED: ENDBRANCH  27  30
DOCKED: ENDBRANCH  22  24
DOCKED: ENDBRANCH  19  21
DOCKED: ENDBRANCH   1  19
DOCKED: TORSDOF 10DOCKED: TER
DOCKED: ENDMDL
________________________________________________________________________________


	BEGINNING GENETIC ALGORITHM DOCKING 48 of 100
Run: 48 Seed: 1664002313 1225204161 [ Run 48 of 100 GA/GALS ]
Beginning LAMARCKIAN GENETIC ALGORITHM (LGA), with a maximum of 2500000 energy evaluations.

Final-Value: -17.702


	FINAL GENETIC ALGORITHM DOCKED STATE
	_______________________________________________


Detailed state:  trans 35.861 17.965 122.536 quatxyzw 0.294527 -0.454178 0.041442 0.839797 center 1.858 0.218 -0.021 ntor 10 179.8329 -119.7538 8.1038 -4.5525 -174.2880 -163.5773 -0.1233 170.4081 95.1761 168.9305
State:	 35.861  17.965 122.536   0.543 -0.837  0.076 65.763    179.83 -119.75    8.10   -4.55 -174.29 -163.58   -0.12  170.41   95.18  168.93

DOCKED: MODEL       48
DOCKED: USER    Run = 48
DOCKED: USER    DPF = ligand_dock.biased.dpf
DOCKED: USER  
DOCKED: USER    Estimated Free Energy of Binding    =  -12.42 kcal/mol  [=(1)+(2)+(3)-(4)]
DOCKED: USER    Estimated Inhibition Constant, Ki   =  789.62 pM (picomolar)  [Temperature = 298.15 K]
DOCKED: USER    
DOCKED: USER    (1) Final Intermolecular Energy     =  -15.40 kcal/mol
DOCKED: USER        vdW + Hbond + desolv Energy     =  -15.40 kcal/mol
DOCKED: USER        Electrostatic Energy            =   +0.00 kcal/mol
DOCKED: USER    (2) Final Total Internal Energy     =   -2.30 kcal/mol
DOCKED: USER    (3) Torsional Free Energy           =   +2.98 kcal/mol
DOCKED: USER    (4) Unbound System's Energy  [=(2)] =   -2.30 kcal/mol
DOCKED: USER    
DOCKED: USER    
DOCKED: USER    NEWDPF move ligand.dum.pdbqt
DOCKED: USER    NEWDPF about 1.858000 0.218000 -0.021000
DOCKED: USER    NEWDPF tran0 35.861098 17.965003 122.536408
DOCKED: USER    NEWDPF quaternion0 0.294527 -0.454178 0.041442 0.839797
DOCKED: USER    NEWDPF axisangle0 0.542506 -0.836576 0.076335 65.762718
DOCKED: USER    NEWDPF quat0 0.542506 -0.836576 0.076335 65.762718
DOCKED: USER    NEWDPF dihe0 179.83 -119.75 8.10 -4.55 -174.29 -163.58 -0.12 170.41 95.18 168.93 
DOCKED: USER  keepresnum = 1 
DOCKED: USER  
DOCKED: REMARK  Name = 
DOCKED: REMARK  12 active torsions:
DOCKED: REMARK  status: ('A' for Active; 'I' for Inactive)
DOCKED: REMARK    1  A    between atoms: C_2  and  O_3
DOCKED: REMARK    2  A    between atoms: O_3  and  C_4
DOCKED: REMARK    3  A    between atoms: C_4  and  C_5
DOCKED: REMARK    4  A    between atoms: C_10  and  C_11
DOCKED: REMARK    5  A    between atoms: C_11  and  N_12
DOCKED: REMARK    6  A    between atoms: N_12  and  C_13
DOCKED: REMARK    7  A    between atoms: N_12  and  C_15
DOCKED: REMARK    8  A    between atoms: C_13  and  C_14
DOCKED: REMARK    9  A    between atoms: C_15  and  C_16
DOCKED: REMARK   10  A    between atoms: N_21  and  C_22
DOCKED: REMARK   11  A    between atoms: C_25  and  C_26
DOCKED: REMARK   12  A    between atoms: N_27  and  O_28
DOCKED: REMARK                            x       y       z     vdW  Elec       q    Type
DOCKED: REMARK                         _______ _______ _______ _____ _____    ______ ____
DOCKED: USER                              x       y       z     vdW  Elec       q    Type
DOCKED: USER                           _______ _______ _______ _____ _____    ______ ____
DOCKED: ROOT
DOCKED: ATOM      1  C   UNL     1      37.081  18.162 123.624 -0.20 -0.00    +0.000 C 
DOCKED: ENDROOT
DOCKED: BRANCH   1   2
DOCKED: ATOM      2  C   UNL     1      35.871  18.308 124.500 -0.22 -0.00    +0.000 A 
DOCKED: ATOM      3  C   UNL     1      35.307  19.574 124.720 -0.18 -0.00    +0.000 A 
DOCKED: ATOM      4  C   UNL     1      34.203  19.722 125.563 -0.15 -0.00    +0.000 A 
DOCKED: ATOM      5  C   UNL     1      33.657  18.605 126.211 -0.28 -0.00    +0.000 A 
DOCKED: ATOM      6  C   UNL     1      32.549  18.744 127.062 -0.22 -0.00    +0.000 A 
DOCKED: ATOM      7  C   UNL     1      32.009  17.622 127.712 -0.14 -0.00    +0.000 A 
DOCKED: ATOM      8  C   UNL     1      32.582  16.358 127.504 -0.32 -0.00    +0.000 A 
DOCKED: ATOM      9  C   UNL     1      33.685  16.211 126.660 -0.24 -0.00    +0.000 A 
DOCKED: ATOM     10  C   UNL     1      34.230  17.327 126.009 -0.33 -0.00    +0.000 A 
DOCKED: ATOM     11  C   UNL     1      35.338  17.189 125.159 -0.21 -0.00    +0.000 A 
DOCKED: ATOM     12  CM  UNL     1      34.768  18.454 125.360 -0.32 -0.00    +0.000 AC
DOCKED: ATOM     13  CM  UNL     1      33.119  17.478 126.860 +0.00 -0.00    +0.000 AC
DOCKED: BRANCH   7  12
DOCKED: ATOM     14  C   UNL     1      30.808  17.760 128.611 -0.42 -0.00    +0.000 C 
DOCKED: BRANCH  12  13
DOCKED: ATOM     15  N   UNL     1      31.043  18.819 129.615 -0.21 -0.00    +0.000 N 
DOCKED: ATOM     16  H   UNL     1      31.658  19.518 129.200 +0.01 -0.00    +0.000 HD
DOCKED: BRANCH  13  15
DOCKED: ATOM     17  C   UNL     1      31.772  18.295 130.794 -0.20 -0.00    +0.000 C 
DOCKED: ATOM     18  C   UNL     1      31.785  16.767 130.824 -0.33 -0.00    +0.000 C 
DOCKED: ENDBRANCH  13  15
DOCKED: BRANCH  13  17
DOCKED: ATOM     19  C   UNL     1      29.800  19.558 129.949 -0.30 -0.00    +0.000 C 
DOCKED: ATOM     20  C   UNL     1      29.053  20.120 128.731 -0.39 -0.00    +0.000 C 
DOCKED: ENDBRANCH  13  17
DOCKED: ENDBRANCH  12  13
DOCKED: ENDBRANCH   7  12
DOCKED: ENDBRANCH   1   2
DOCKED: BRANCH   1  19
DOCKED: ATOM     21  O   UNL     1      36.675  17.696 122.340 -0.18 -0.00    +0.000 OA
DOCKED: BRANCH  19  21
DOCKED: ATOM     22  O   UNL     1      35.939  15.990 120.973 -0.15 -0.00    +0.000 OA
DOCKED: ATOM     23  C   UNL     1      36.489  16.342 122.053 -0.26 -0.00    +0.000 C 
DOCKED: ATOM     24  N   UNL     1      36.890  15.363 123.020 -0.36 -0.00    +0.000 N 
DOCKED: ATOM     25  H   UNL     1      37.167  15.681 123.910 -0.03 -0.00    +0.000 HD
DOCKED: BRANCH  22  24
DOCKED: ATOM     26  C   UNL     1      36.915  13.945 122.778 -0.45 -0.00    +0.000 A 
DOCKED: ATOM     27  C   UNL     1      36.648  13.063 123.834 -0.48 -0.00    +0.000 A 
DOCKED: ATOM     28  C   UNL     1      36.687  11.681 123.631 -0.62 -0.00    +0.000 A 
DOCKED: ATOM     29  C   UNL     1      37.004  11.152 122.368 -0.51 -0.00    +0.000 A 
DOCKED: ATOM     30  C   UNL     1      37.307  12.038 121.319 -0.45 -0.00    +0.000 A 
DOCKED: ATOM     31  C   UNL     1      37.267  13.421 121.522 -0.40 -0.00    +0.000 A 
DOCKED: ATOM     32  CM  UNL     1      36.972  12.550 122.576 +0.00 -0.00    +0.000 AC
DOCKED: BRANCH  27  30
DOCKED: ATOM     33  C   UNL     1      37.047   9.683 122.169 -0.60 -0.00    +0.000 C 
DOCKED: ATOM     34  N   UNL     1      37.128   8.780 123.279 -0.64 -0.00    +0.000 N 
DOCKED: ATOM     35  O   UNL     1      37.025   9.213 120.999 -2.72 -0.00    +0.000 OA
DOCKED: ATOM     36  H   UNL     1      37.232   9.134 124.192 -0.59 -0.00    +0.000 HD
DOCKED: BRANCH  31  34
DOCKED: ATOM     37  O   UNL     1      37.063   7.442 123.078 -2.21 -0.00    +0.000 OA
DOCKED: ATOM     38  H   UNL     1      37.091   7.256 122.127 -0.09 -0.00    +0.000 HD
DOCKED: ENDBRANCH  31  34
DOCKED: ENDBRANCH  27  30
DOCKED: ENDBRANCH  22  24
DOCKED: ENDBRANCH  19  21
DOCKED: ENDBRANCH   1  19
DOCKED: TORSDOF 10DOCKED: TER
DOCKED: ENDMDL
________________________________________________________________________________


	BEGINNING GENETIC ALGORITHM DOCKING 49 of 100
Run: 49 Seed: 393191039 1808009435 [ Run 49 of 100 GA/GALS ]
Beginning LAMARCKIAN GENETIC ALGORITHM (LGA), with a maximum of 2500000 energy evaluations.

Final-Value: -17.191


	FINAL GENETIC ALGORITHM DOCKED STATE
	_______________________________________________


Detailed state:  trans 37.041 17.817 120.288 quatxyzw 0.417857 0.110674 0.329931 0.839221 center 1.858 0.218 -0.021 ntor 10 -80.5024 -142.9248 -2.3104 -40.7449 4.8609 100.5667 -164.7604 72.8300 107.7394 -175.7718
State:	 37.041  17.817 120.288   0.768  0.204  0.607 65.884    -80.50 -142.92   -2.31  -40.74    4.86  100.57 -164.76   72.83  107.74 -175.77

DOCKED: MODEL       49
DOCKED: USER    Run = 49
DOCKED: USER    DPF = ligand_dock.biased.dpf
DOCKED: USER  
DOCKED: USER    Estimated Free Energy of Binding    =  -12.02 kcal/mol  [=(1)+(2)+(3)-(4)]
DOCKED: USER    Estimated Inhibition Constant, Ki   =    1.55 nM (nanomolar)  [Temperature = 298.15 K]
DOCKED: USER    
DOCKED: USER    (1) Final Intermolecular Energy     =  -15.00 kcal/mol
DOCKED: USER        vdW + Hbond + desolv Energy     =  -15.00 kcal/mol
DOCKED: USER        Electrostatic Energy            =   +0.00 kcal/mol
DOCKED: USER    (2) Final Total Internal Energy     =   -2.19 kcal/mol
DOCKED: USER    (3) Torsional Free Energy           =   +2.98 kcal/mol
DOCKED: USER    (4) Unbound System's Energy  [=(2)] =   -2.19 kcal/mol
DOCKED: USER    
DOCKED: USER    
DOCKED: USER    NEWDPF move ligand.dum.pdbqt
DOCKED: USER    NEWDPF about 1.858000 0.218000 -0.021000
DOCKED: USER    NEWDPF tran0 37.040878 17.817094 120.288328
DOCKED: USER    NEWDPF quaternion0 0.417857 0.110674 0.329931 0.839221
DOCKED: USER    NEWDPF axisangle0 0.768416 0.203524 0.606725 65.884101
DOCKED: USER    NEWDPF quat0 0.768416 0.203524 0.606725 65.884101
DOCKED: USER    NEWDPF dihe0 -80.50 -142.92 -2.31 -40.74 4.86 100.57 -164.76 72.83 107.74 -175.77 
DOCKED: USER  keepresnum = 1 
DOCKED: USER  
DOCKED: REMARK  Name = 
DOCKED: REMARK  12 active torsions:
DOCKED: REMARK  status: ('A' for Active; 'I' for Inactive)
DOCKED: REMARK    1  A    between atoms: C_2  and  O_3
DOCKED: REMARK    2  A    between atoms: O_3  and  C_4
DOCKED: REMARK    3  A    between atoms: C_4  and  C_5
DOCKED: REMARK    4  A    between atoms: C_10  and  C_11
DOCKED: REMARK    5  A    between atoms: C_11  and  N_12
DOCKED: REMARK    6  A    between atoms: N_12  and  C_13
DOCKED: REMARK    7  A    between atoms: N_12  and  C_15
DOCKED: REMARK    8  A    between atoms: C_13  and  C_14
DOCKED: REMARK    9  A    between atoms: C_15  and  C_16
DOCKED: REMARK   10  A    between atoms: N_21  and  C_22
DOCKED: REMARK   11  A    between atoms: C_25  and  C_26
DOCKED: REMARK   12  A    between atoms: N_27  and  O_28
DOCKED: REMARK                            x       y       z     vdW  Elec       q    Type
DOCKED: REMARK                         _______ _______ _______ _____ _____    ______ ____
DOCKED: USER                              x       y       z     vdW  Elec       q    Type
DOCKED: USER                           _______ _______ _______ _____ _____    ______ ____
DOCKED: ROOT
DOCKED: ATOM      1  C   UNL     1      36.632  18.766 121.569 -0.16 -0.00    +0.000 C 
DOCKED: ENDROOT
DOCKED: BRANCH   1   2
DOCKED: ATOM      2  C   UNL     1      35.452  18.963 120.662 -0.19 -0.00    +0.000 A 
DOCKED: ATOM      3  C   UNL     1      35.562  19.783 119.529 -0.11 -0.00    +0.000 A 
DOCKED: ATOM      4  C   UNL     1      34.458  19.999 118.700 -0.14 -0.00    +0.000 A 
DOCKED: ATOM      5  C   UNL     1      33.223  19.406 119.002 -0.24 -0.00    +0.000 A 
DOCKED: ATOM      6  C   UNL     1      32.109  19.619 118.176 -0.21 -0.00    +0.000 A 
DOCKED: ATOM      7  C   UNL     1      30.873  19.027 118.486 -0.30 -0.00    +0.000 A 
DOCKED: ATOM      8  C   UNL     1      30.760  18.218 119.627 -0.41 -0.00    +0.000 A 
DOCKED: ATOM      9  C   UNL     1      31.864  18.003 120.455 -0.25 -0.00    +0.000 A 
DOCKED: ATOM     10  C   UNL     1      33.100  18.591 120.152 -0.35 -0.00    +0.000 A 
DOCKED: ATOM     11  C   UNL     1      34.215  18.380 120.977 -0.27 -0.00    +0.000 A 
DOCKED: ATOM     12  CM  UNL     1      34.335  19.187 119.837 +0.00 -0.00    +0.000 AC
DOCKED: ATOM     13  CM  UNL     1      31.988  18.811 119.317 +0.00 -0.00    +0.000 AC
DOCKED: BRANCH   7  12
DOCKED: ATOM     14  C   UNL     1      29.677  19.234 117.595 -0.20 -0.00    +0.000 C 
DOCKED: BRANCH  12  13
DOCKED: ATOM     15  N   UNL     1      28.436  19.224 118.398 -0.25 -0.00    +0.000 N 
DOCKED: ATOM     16  H   UNL     1      28.682  18.985 119.358 -0.47 -0.00    +0.000 HD
DOCKED: BRANCH  13  15
DOCKED: ATOM     17  C   UNL     1      27.507  18.161 117.947 -0.32 -0.00    +0.000 C 
DOCKED: ATOM     18  C   UNL     1      27.815  16.817 118.606 -0.43 -0.00    +0.000 C 
DOCKED: ENDBRANCH  13  15
DOCKED: BRANCH  13  17
DOCKED: ATOM     19  C   UNL     1      27.819  20.571 118.489 -0.25 -0.00    +0.000 C 
DOCKED: ATOM     20  C   UNL     1      28.528  21.526 119.461 -0.32 -0.00    +0.000 C 
DOCKED: ENDBRANCH  13  17
DOCKED: ENDBRANCH  12  13
DOCKED: ENDBRANCH   7  12
DOCKED: ENDBRANCH   1   2
DOCKED: BRANCH   1  19
DOCKED: ATOM     21  O   UNL     1      37.439  17.707 121.065 -0.11 -0.00    +0.000 OA
DOCKED: BRANCH  19  21
DOCKED: ATOM     22  O   UNL     1      36.124  15.935 120.391 -0.16 -0.00    +0.000 OA
DOCKED: ATOM     23  C   UNL     1      37.053  16.366 121.130 -0.20 -0.00    +0.000 C 
DOCKED: ATOM     24  N   UNL     1      37.694  15.501 122.077 -0.26 -0.00    +0.000 N 
DOCKED: ATOM     25  H   UNL     1      38.297  15.911 122.739 -0.01 -0.00    +0.000 HD
DOCKED: BRANCH  22  24
DOCKED: ATOM     26  C   UNL     1      37.515  14.075 122.124 -0.40 -0.00    +0.000 A 
DOCKED: ATOM     27  C   UNL     1      37.609  13.331 120.940 -0.41 -0.00    +0.000 A 
DOCKED: ATOM     28  C   UNL     1      37.419  11.947 120.954 -0.45 -0.00    +0.000 A 
DOCKED: ATOM     29  C   UNL     1      37.121  11.278 122.154 -0.43 -0.00    +0.000 A 
DOCKED: ATOM     30  C   UNL     1      36.992  12.030 123.335 -0.60 -0.00    +0.000 A 
DOCKED: ATOM     31  C   UNL     1      37.183  13.416 123.320 -0.50 -0.00    +0.000 A 
DOCKED: ATOM     32  CM  UNL     1      37.307  12.679 122.137 +0.00 -0.00    +0.000 AC
DOCKED: BRANCH  27  30
DOCKED: ATOM     33  C   UNL     1      36.918   9.809 122.153 -0.62 -0.00    +0.000 C 
DOCKED: ATOM     34  N   UNL     1      36.988   9.044 123.362 -0.60 -0.00    +0.000 N 
DOCKED: ATOM     35  O   UNL     1      36.691   9.214 121.064 -2.61 -0.00    +0.000 OA
DOCKED: ATOM     36  H   UNL     1      37.247   9.482 124.205 -0.61 -0.00    +0.000 HD
DOCKED: BRANCH  31  34
DOCKED: ATOM     37  O   UNL     1      36.698   7.721 123.352 -2.15 -0.00    +0.000 OA
DOCKED: ATOM     38  H   UNL     1      36.428   7.456 122.459 -0.02 -0.00    +0.000 HD
DOCKED: ENDBRANCH  31  34
DOCKED: ENDBRANCH  27  30
DOCKED: ENDBRANCH  22  24
DOCKED: ENDBRANCH  19  21
DOCKED: ENDBRANCH   1  19
DOCKED: TORSDOF 10DOCKED: TER
DOCKED: ENDMDL
________________________________________________________________________________


	BEGINNING GENETIC ALGORITHM DOCKING 50 of 100
Run: 50 Seed: 265568562 1510456435 [ Run 50 of 100 GA/GALS ]
Beginning LAMARCKIAN GENETIC ALGORITHM (LGA), with a maximum of 2500000 energy evaluations.

Final-Value: -17.299


	FINAL GENETIC ALGORITHM DOCKED STATE
	_______________________________________________


Detailed state:  trans 36.121 17.279 123.493 quatxyzw -0.851856 0.114834 0.495940 -0.123276 center 1.858 0.218 -0.021 ntor 10 -42.4095 82.8324 20.0078 87.9844 148.0322 156.0703 14.4742 84.7749 -81.4968 2.9786
State:	 36.121  17.279 123.493  -0.858  0.116  0.500 -165.838    -42.41   82.83   20.01   87.98  148.03  156.07   14.47   84.77  -81.50    2.98

DOCKED: MODEL       50
DOCKED: USER    Run = 50
DOCKED: USER    DPF = ligand_dock.biased.dpf
DOCKED: USER  
DOCKED: USER    Estimated Free Energy of Binding    =  -12.13 kcal/mol  [=(1)+(2)+(3)-(4)]
DOCKED: USER    Estimated Inhibition Constant, Ki   =    1.29 nM (nanomolar)  [Temperature = 298.15 K]
DOCKED: USER    
DOCKED: USER    (1) Final Intermolecular Energy     =  -15.11 kcal/mol
DOCKED: USER        vdW + Hbond + desolv Energy     =  -15.11 kcal/mol
DOCKED: USER        Electrostatic Energy            =   +0.00 kcal/mol
DOCKED: USER    (2) Final Total Internal Energy     =   -2.19 kcal/mol
DOCKED: USER    (3) Torsional Free Energy           =   +2.98 kcal/mol
DOCKED: USER    (4) Unbound System's Energy  [=(2)] =   -2.19 kcal/mol
DOCKED: USER    
DOCKED: USER    
DOCKED: USER    NEWDPF move ligand.dum.pdbqt
DOCKED: USER    NEWDPF about 1.858000 0.218000 -0.021000
DOCKED: USER    NEWDPF tran0 36.121277 17.278744 123.492542
DOCKED: USER    NEWDPF quaternion0 -0.851856 0.114834 0.495940 -0.123276
DOCKED: USER    NEWDPF axisangle0 -0.858404 0.115716 0.499752 -165.837594
DOCKED: USER    NEWDPF quat0 -0.858404 0.115716 0.499752 -165.837594
DOCKED: USER    NEWDPF dihe0 -42.41 82.83 20.01 87.98 148.03 156.07 14.47 84.77 -81.50 2.98 
DOCKED: USER  keepresnum = 1 
DOCKED: USER  
DOCKED: REMARK  Name = 
DOCKED: REMARK  12 active torsions:
DOCKED: REMARK  status: ('A' for Active; 'I' for Inactive)
DOCKED: REMARK    1  A    between atoms: C_2  and  O_3
DOCKED: REMARK    2  A    between atoms: O_3  and  C_4
DOCKED: REMARK    3  A    between atoms: C_4  and  C_5
DOCKED: REMARK    4  A    between atoms: C_10  and  C_11
DOCKED: REMARK    5  A    between atoms: C_11  and  N_12
DOCKED: REMARK    6  A    between atoms: N_12  and  C_13
DOCKED: REMARK    7  A    between atoms: N_12  and  C_15
DOCKED: REMARK    8  A    between atoms: C_13  and  C_14
DOCKED: REMARK    9  A    between atoms: C_15  and  C_16
DOCKED: REMARK   10  A    between atoms: N_21  and  C_22
DOCKED: REMARK   11  A    between atoms: C_25  and  C_26
DOCKED: REMARK   12  A    between atoms: N_27  and  O_28
DOCKED: REMARK                            x       y       z     vdW  Elec       q    Type
DOCKED: REMARK                         _______ _______ _______ _____ _____    ______ ____
DOCKED: USER                              x       y       z     vdW  Elec       q    Type
DOCKED: USER                           _______ _______ _______ _____ _____    ______ ____
DOCKED: ROOT
DOCKED: ATOM      1  C   UNL     1      35.030  18.397 122.976 -0.26 -0.00    +0.000 C 
DOCKED: ENDROOT
DOCKED: BRANCH   1   2
DOCKED: ATOM      2  C   UNL     1      34.814  18.432 124.461 -0.28 -0.00    +0.000 A 
DOCKED: ATOM      3  C   UNL     1      35.337  19.485 125.226 -0.19 -0.00    +0.000 A 
DOCKED: ATOM      4  C   UNL     1      35.171  19.505 126.613 -0.15 -0.00    +0.000 A 
DOCKED: ATOM      5  C   UNL     1      34.490  18.461 127.256 -0.19 -0.00    +0.000 A 
DOCKED: ATOM      6  C   UNL     1      34.319  18.472 128.650 -0.13 -0.00    +0.000 A 
DOCKED: ATOM      7  C   UNL     1      33.640  17.422 129.289 -0.21 -0.00    +0.000 A 
DOCKED: ATOM      8  C   UNL     1      33.129  16.361 128.525 -0.33 -0.00    +0.000 A 
DOCKED: ATOM      9  C   UNL     1      33.296  16.342 127.139 -0.36 -0.00    +0.000 A 
DOCKED: ATOM     10  C   UNL     1      33.974  17.387 126.494 -0.33 -0.00    +0.000 A 
DOCKED: ATOM     11  C   UNL     1      34.145  17.377 125.102 -0.38 -0.00    +0.000 A 
DOCKED: ATOM     12  CM  UNL     1      34.655  18.441 125.859 -0.21 -0.00    +0.000 AC
DOCKED: ATOM     13  CM  UNL     1      33.808  17.407 127.892 +0.00 -0.00    +0.000 AC
DOCKED: BRANCH   7  12
DOCKED: ATOM     14  C   UNL     1      33.436  17.435 130.781 -0.20 -0.00    +0.000 C 
DOCKED: BRANCH  12  13
DOCKED: ATOM     15  N   UNL     1      34.537  16.712 131.452 -0.18 -0.00    +0.000 N 
DOCKED: ATOM     16  H   UNL     1      34.974  17.348 132.118 +0.01 -0.00    +0.000 HD
DOCKED: BRANCH  13  15
DOCKED: ATOM     17  C   UNL     1      35.605  16.342 130.492 -0.22 -0.00    +0.000 C 
DOCKED: ATOM     18  C   UNL     1      36.968  16.886 130.918 -0.23 -0.00    +0.000 C 
DOCKED: ENDBRANCH  13  15
DOCKED: BRANCH  13  17
DOCKED: ATOM     19  C   UNL     1      34.042  15.581 132.276 -0.29 -0.00    +0.000 C 
DOCKED: ATOM     20  C   UNL     1      35.022  14.404 132.387 -0.30 -0.00    +0.000 C 
DOCKED: ENDBRANCH  13  17
DOCKED: ENDBRANCH  12  13
DOCKED: ENDBRANCH   7  12
DOCKED: ENDBRANCH   1   2
DOCKED: BRANCH   1  19
DOCKED: ATOM     21  O   UNL     1      36.195  17.630 122.690 -0.22 -0.00    +0.000 OA
DOCKED: BRANCH  19  21
DOCKED: ATOM     22  O   UNL     1      35.940  15.990 121.087 -0.16 -0.00    +0.000 OA
DOCKED: ATOM     23  C   UNL     1      36.140  16.291 122.297 -0.29 -0.00    +0.000 C 
DOCKED: ATOM     24  N   UNL     1      36.269  15.267 123.292 -0.41 -0.00    +0.000 N 
DOCKED: ATOM     25  H   UNL     1      36.264  15.541 124.238 -0.03 -0.00    +0.000 HD
DOCKED: BRANCH  22  24
DOCKED: ATOM     26  C   UNL     1      36.405  13.865 123.002 -0.45 -0.00    +0.000 A 
DOCKED: ATOM     27  C   UNL     1      35.619  12.939 123.702 -0.36 -0.00    +0.000 A 
DOCKED: ATOM     28  C   UNL     1      35.747  11.570 123.454 -0.55 -0.00    +0.000 A 
DOCKED: ATOM     29  C   UNL     1      36.671  11.097 122.507 -0.59 -0.00    +0.000 A 
DOCKED: ATOM     30  C   UNL     1      37.483  12.025 121.830 -0.33 -0.00    +0.000 A 
DOCKED: ATOM     31  C   UNL     1      37.354  13.395 122.078 -0.44 -0.00    +0.000 A 
DOCKED: ATOM     32  CM  UNL     1      36.546  12.481 122.762 +0.00 -0.00    +0.000 AC
DOCKED: BRANCH  27  30
DOCKED: ATOM     33  C   UNL     1      36.798   9.640 122.258 -0.67 -0.00    +0.000 C 
DOCKED: ATOM     34  N   UNL     1      37.058   8.720 123.325 -0.66 -0.00    +0.000 N 
DOCKED: ATOM     35  O   UNL     1      36.690   9.199 121.081 -2.61 -0.00    +0.000 OA
DOCKED: ATOM     36  H   UNL     1      37.229   9.058 124.234 -0.58 -0.00    +0.000 HD
DOCKED: BRANCH  31  34
DOCKED: ATOM     37  O   UNL     1      37.070   7.386 123.089 -2.18 -0.00    +0.000 OA
DOCKED: ATOM     38  H   UNL     1      37.202   7.226 122.142 -0.12 -0.00    +0.000 HD
DOCKED: ENDBRANCH  31  34
DOCKED: ENDBRANCH  27  30
DOCKED: ENDBRANCH  22  24
DOCKED: ENDBRANCH  19  21
DOCKED: ENDBRANCH   1  19
DOCKED: TORSDOF 10DOCKED: TER
DOCKED: ENDMDL
________________________________________________________________________________


	BEGINNING GENETIC ALGORITHM DOCKING 51 of 100
Run: 51 Seed: 185241105 660832945 [ Run 51 of 100 GA/GALS ]
Beginning LAMARCKIAN GENETIC ALGORITHM (LGA), with a maximum of 2500000 energy evaluations.

Final-Value: -18.550


	FINAL GENETIC ALGORITHM DOCKED STATE
	_______________________________________________


Detailed state:  trans 35.484 17.991 122.566 quatxyzw 0.294555 -0.501007 0.045357 0.812510 center 1.858 0.218 -0.021 ntor 10 -122.3838 101.3881 14.3895 -77.3195 172.2979 -73.2392 0.0197 -161.9089 83.4020 159.8378
State:	 35.484  17.991 122.566   0.505 -0.859  0.078 71.316   -122.38  101.39   14.39  -77.32  172.30  -73.24    0.02 -161.91   83.40  159.84

DOCKED: MODEL       51
DOCKED: USER    Run = 51
DOCKED: USER    DPF = ligand_dock.biased.dpf
DOCKED: USER  
DOCKED: USER    Estimated Free Energy of Binding    =  -13.34 kcal/mol  [=(1)+(2)+(3)-(4)]
DOCKED: USER    Estimated Inhibition Constant, Ki   =  167.79 pM (picomolar)  [Temperature = 298.15 K]
DOCKED: USER    
DOCKED: USER    (1) Final Intermolecular Energy     =  -16.32 kcal/mol
DOCKED: USER        vdW + Hbond + desolv Energy     =  -16.32 kcal/mol
DOCKED: USER        Electrostatic Energy            =   +0.00 kcal/mol
DOCKED: USER    (2) Final Total Internal Energy     =   -2.23 kcal/mol
DOCKED: USER    (3) Torsional Free Energy           =   +2.98 kcal/mol
DOCKED: USER    (4) Unbound System's Energy  [=(2)] =   -2.23 kcal/mol
DOCKED: USER    
DOCKED: USER    
DOCKED: USER    NEWDPF move ligand.dum.pdbqt
DOCKED: USER    NEWDPF about 1.858000 0.218000 -0.021000
DOCKED: USER    NEWDPF tran0 35.483814 17.990972 122.565505
DOCKED: USER    NEWDPF quaternion0 0.294555 -0.501007 0.045357 0.812510
DOCKED: USER    NEWDPF axisangle0 0.505286 -0.859437 0.077806 71.316214
DOCKED: USER    NEWDPF quat0 0.505286 -0.859437 0.077806 71.316214
DOCKED: USER    NEWDPF dihe0 -122.38 101.39 14.39 -77.32 172.30 -73.24 0.02 -161.91 83.40 159.84 
DOCKED: USER  keepresnum = 1 
DOCKED: USER  
DOCKED: REMARK  Name = 
DOCKED: REMARK  12 active torsions:
DOCKED: REMARK  status: ('A' for Active; 'I' for Inactive)
DOCKED: REMARK    1  A    between atoms: C_2  and  O_3
DOCKED: REMARK    2  A    between atoms: O_3  and  C_4
DOCKED: REMARK    3  A    between atoms: C_4  and  C_5
DOCKED: REMARK    4  A    between atoms: C_10  and  C_11
DOCKED: REMARK    5  A    between atoms: C_11  and  N_12
DOCKED: REMARK    6  A    between atoms: N_12  and  C_13
DOCKED: REMARK    7  A    between atoms: N_12  and  C_15
DOCKED: REMARK    8  A    between atoms: C_13  and  C_14
DOCKED: REMARK    9  A    between atoms: C_15  and  C_16
DOCKED: REMARK   10  A    between atoms: N_21  and  C_22
DOCKED: REMARK   11  A    between atoms: C_25  and  C_26
DOCKED: REMARK   12  A    between atoms: N_27  and  O_28
DOCKED: REMARK                            x       y       z     vdW  Elec       q    Type
DOCKED: REMARK                         _______ _______ _______ _____ _____    ______ ____
DOCKED: USER                              x       y       z     vdW  Elec       q    Type
DOCKED: USER                           _______ _______ _______ _____ _____    ______ ____
DOCKED: ROOT
DOCKED: ATOM      1  C   UNL     1      36.813  18.158 123.521 -0.20 -0.00    +0.000 C 
DOCKED: ENDROOT
DOCKED: BRANCH   1   2
DOCKED: ATOM      2  C   UNL     1      35.705  18.361 124.512 -0.23 -0.00    +0.000 A 
DOCKED: ATOM      3  C   UNL     1      35.340  19.657 124.907 -0.18 -0.00    +0.000 A 
DOCKED: ATOM      4  C   UNL     1      34.334  19.851 125.856 -0.18 -0.00    +0.000 A 
DOCKED: ATOM      5  C   UNL     1      33.687  18.750 126.435 -0.26 -0.00    +0.000 A 
DOCKED: ATOM      6  C   UNL     1      32.676  18.936 127.390 -0.21 -0.00    +0.000 A 
DOCKED: ATOM      7  C   UNL     1      32.035  17.828 127.969 -0.26 -0.00    +0.000 A 
DOCKED: ATOM      8  C   UNL     1      32.410  16.532 127.585 -0.34 -0.00    +0.000 A 
DOCKED: ATOM      9  C   UNL     1      33.416  16.338 126.636 -0.30 -0.00    +0.000 A 
DOCKED: ATOM     10  C   UNL     1      34.061  17.439 126.054 -0.36 -0.00    +0.000 A 
DOCKED: ATOM     11  C   UNL     1      35.072  17.254 125.099 -0.30 -0.00    +0.000 A 
DOCKED: ATOM     12  CM  UNL     1      34.700  18.552 125.477 -0.27 -0.00    +0.000 AC
DOCKED: ATOM     13  CM  UNL     1      33.048  17.637 127.012 +0.00 -0.00    +0.000 AC
DOCKED: BRANCH   7  12
DOCKED: ATOM     14  C   UNL     1      30.936  18.020 128.981 -0.37 -0.00    +0.000 C 
DOCKED: BRANCH  12  13
DOCKED: ATOM     15  N   UNL     1      30.092  19.173 128.604 -0.31 -0.00    +0.000 N 
DOCKED: ATOM     16  H   UNL     1      30.705  19.923 128.286 +0.00 -0.00    +0.000 HD
DOCKED: BRANCH  13  15
DOCKED: ATOM     17  C   UNL     1      29.366  19.719 129.775 -0.32 -0.00    +0.000 C 
DOCKED: ATOM     18  C   UNL     1      30.265  19.826 131.005 -0.24 -0.00    +0.000 C 
DOCKED: ENDBRANCH  13  15
DOCKED: BRANCH  13  17
DOCKED: ATOM     19  C   UNL     1      29.225  18.872 127.437 -0.48 -0.00    +0.000 C 
DOCKED: ATOM     20  C   UNL     1      28.131  19.918 127.177 -0.62 -0.00    +0.000 C 
DOCKED: ENDBRANCH  13  17
DOCKED: ENDBRANCH  12  13
DOCKED: ENDBRANCH   7  12
DOCKED: ENDBRANCH   1   2
DOCKED: BRANCH   1  19
DOCKED: ATOM     21  O   UNL     1      36.264  17.689 122.293 -0.21 -0.00    +0.000 OA
DOCKED: BRANCH  19  21
DOCKED: ATOM     22  O   UNL     1      36.031  15.985 120.755 -0.16 -0.00    +0.000 OA
DOCKED: ATOM     23  C   UNL     1      36.222  16.335 121.953 -0.25 -0.00    +0.000 C 
DOCKED: ATOM     24  N   UNL     1      36.355  15.352 122.988 -0.37 -0.00    +0.000 N 
DOCKED: ATOM     25  H   UNL     1      36.344  15.663 123.922 -0.02 -0.00    +0.000 HD
DOCKED: BRANCH  22  24
DOCKED: ATOM     26  C   UNL     1      36.505  13.941 122.753 -0.41 -0.00    +0.000 A 
DOCKED: ATOM     27  C   UNL     1      35.967  13.031 123.673 -0.54 -0.00    +0.000 A 
DOCKED: ATOM     28  C   UNL     1      36.117  11.655 123.480 -0.62 -0.00    +0.000 A 
DOCKED: ATOM     29  C   UNL     1      36.816  11.160 122.366 -0.55 -0.00    +0.000 A 
DOCKED: ATOM     30  C   UNL     1      37.385  12.076 121.462 -0.44 -0.00    +0.000 A 
DOCKED: ATOM     31  C   UNL     1      37.234  13.452 121.655 -0.40 -0.00    +0.000 A 
DOCKED: ATOM     32  CM  UNL     1      36.671  12.552 122.565 +0.00 -0.00    +0.000 AC
DOCKED: BRANCH  27  30
DOCKED: ATOM     33  C   UNL     1      36.971   9.697 122.177 -0.62 -0.00    +0.000 C 
DOCKED: ATOM     34  N   UNL     1      37.033   8.802 123.293 -0.65 -0.00    +0.000 N 
DOCKED: ATOM     35  O   UNL     1      37.065   9.228 121.010 -2.73 -0.00    +0.000 OA
DOCKED: ATOM     36  H   UNL     1      37.047   9.161 124.210 -0.57 -0.00    +0.000 HD
DOCKED: BRANCH  31  34
DOCKED: ATOM     37  O   UNL     1      37.072   7.463 123.094 -2.22 -0.00    +0.000 OA
DOCKED: ATOM     38  H   UNL     1      37.279   7.280 122.164 -0.12 -0.00    +0.000 HD
DOCKED: ENDBRANCH  31  34
DOCKED: ENDBRANCH  27  30
DOCKED: ENDBRANCH  22  24
DOCKED: ENDBRANCH  19  21
DOCKED: ENDBRANCH   1  19
DOCKED: TORSDOF 10DOCKED: TER
DOCKED: ENDMDL
________________________________________________________________________________


	BEGINNING GENETIC ALGORITHM DOCKING 52 of 100
Run: 52 Seed: 72973852 1095782744 [ Run 52 of 100 GA/GALS ]
Beginning LAMARCKIAN GENETIC ALGORITHM (LGA), with a maximum of 2500000 energy evaluations.

Final-Value: -18.097


	FINAL GENETIC ALGORITHM DOCKED STATE
	_______________________________________________


Detailed state:  trans 36.941 16.971 122.768 quatxyzw -0.890631 -0.011976 0.371339 -0.262182 center 1.858 0.218 -0.021 ntor 10 176.8243 -146.7827 178.1119 -44.8310 -173.2709 107.8726 176.4174 -100.2925 -132.2652 -165.4263
State:	 36.941  16.971 122.768  -0.923 -0.012  0.385 -149.601    176.82 -146.78  178.11  -44.83 -173.27  107.87  176.42 -100.29 -132.27 -165.43

DOCKED: MODEL       52
DOCKED: USER    Run = 52
DOCKED: USER    DPF = ligand_dock.biased.dpf
DOCKED: USER  
DOCKED: USER    Estimated Free Energy of Binding    =  -13.40 kcal/mol  [=(1)+(2)+(3)-(4)]
DOCKED: USER    Estimated Inhibition Constant, Ki   =  150.53 pM (picomolar)  [Temperature = 298.15 K]
DOCKED: USER    
DOCKED: USER    (1) Final Intermolecular Energy     =  -16.38 kcal/mol
DOCKED: USER        vdW + Hbond + desolv Energy     =  -16.38 kcal/mol
DOCKED: USER        Electrostatic Energy            =   +0.00 kcal/mol
DOCKED: USER    (2) Final Total Internal Energy     =   -1.71 kcal/mol
DOCKED: USER    (3) Torsional Free Energy           =   +2.98 kcal/mol
DOCKED: USER    (4) Unbound System's Energy  [=(2)] =   -1.71 kcal/mol
DOCKED: USER    
DOCKED: USER    
DOCKED: USER    NEWDPF move ligand.dum.pdbqt
DOCKED: USER    NEWDPF about 1.858000 0.218000 -0.021000
DOCKED: USER    NEWDPF tran0 36.941289 16.970595 122.768342
DOCKED: USER    NEWDPF quaternion0 -0.890631 -0.011976 0.371339 -0.262182
DOCKED: USER    NEWDPF axisangle0 -0.922916 -0.012410 0.384800 -149.600810
DOCKED: USER    NEWDPF quat0 -0.922916 -0.012410 0.384800 -149.600810
DOCKED: USER    NEWDPF dihe0 176.82 -146.78 178.11 -44.83 -173.27 107.87 176.42 -100.29 -132.27 -165.43 
DOCKED: USER  keepresnum = 1 
DOCKED: USER  
DOCKED: REMARK  Name = 
DOCKED: REMARK  12 active torsions:
DOCKED: REMARK  status: ('A' for Active; 'I' for Inactive)
DOCKED: REMARK    1  A    between atoms: C_2  and  O_3
DOCKED: REMARK    2  A    between atoms: O_3  and  C_4
DOCKED: REMARK    3  A    between atoms: C_4  and  C_5
DOCKED: REMARK    4  A    between atoms: C_10  and  C_11
DOCKED: REMARK    5  A    between atoms: C_11  and  N_12
DOCKED: REMARK    6  A    between atoms: N_12  and  C_13
DOCKED: REMARK    7  A    between atoms: N_12  and  C_15
DOCKED: REMARK    8  A    between atoms: C_13  and  C_14
DOCKED: REMARK    9  A    between atoms: C_15  and  C_16
DOCKED: REMARK   10  A    between atoms: N_21  and  C_22
DOCKED: REMARK   11  A    between atoms: C_25  and  C_26
DOCKED: REMARK   12  A    between atoms: N_27  and  O_28
DOCKED: REMARK                            x       y       z     vdW  Elec       q    Type
DOCKED: REMARK                         _______ _______ _______ _____ _____    ______ ____
DOCKED: USER                              x       y       z     vdW  Elec       q    Type
DOCKED: USER                           _______ _______ _______ _____ _____    ______ ____
DOCKED: ROOT
DOCKED: ATOM      1  C   UNL     1      35.940  18.191 122.304 -0.24 -0.00    +0.000 C 
DOCKED: ENDROOT
DOCKED: BRANCH   1   2
DOCKED: ATOM      2  C   UNL     1      35.292  17.741 123.581 -0.30 -0.00    +0.000 A 
DOCKED: ATOM      3  C   UNL     1      34.732  16.458 123.674 -0.43 -0.00    +0.000 A 
DOCKED: ATOM      4  C   UNL     1      34.095  16.046 124.847 -0.47 -0.00    +0.000 A 
DOCKED: ATOM      5  C   UNL     1      33.997  16.919 125.941 -0.37 -0.00    +0.000 A 
DOCKED: ATOM      6  C   UNL     1      33.358  16.514 127.123 -0.38 -0.00    +0.000 A 
DOCKED: ATOM      7  C   UNL     1      33.259  17.394 128.212 -0.30 -0.00    +0.000 A 
DOCKED: ATOM      8  C   UNL     1      33.806  18.683 128.114 -0.15 -0.00    +0.000 A 
DOCKED: ATOM      9  C   UNL     1      34.443  19.094 126.940 -0.17 -0.00    +0.000 A 
DOCKED: ATOM     10  C   UNL     1      34.545  18.221 125.849 -0.29 -0.00    +0.000 A 
DOCKED: ATOM     11  C   UNL     1      35.183  18.625 124.666 -0.25 -0.00    +0.000 A 
DOCKED: ATOM     12  CM  UNL     1      34.641  17.335 124.759 -0.37 -0.00    +0.000 AC
DOCKED: ATOM     13  CM  UNL     1      33.901  17.805 127.030 -0.02 -0.00    +0.000 AC
DOCKED: BRANCH   7  12
DOCKED: ATOM     14  C   UNL     1      32.592  16.961 129.492 -0.34 -0.00    +0.000 C 
DOCKED: BRANCH  12  13
DOCKED: ATOM     15  N   UNL     1      31.790  18.072 130.048 -0.22 -0.00    +0.000 N 
DOCKED: ATOM     16  H   UNL     1      32.009  18.916 129.520 +0.01 -0.00    +0.000 HD
DOCKED: BRANCH  13  15
DOCKED: ATOM     17  C   UNL     1      32.173  18.367 131.450 -0.11 -0.00    +0.000 C 
DOCKED: ATOM     18  C   UNL     1      32.964  17.220 132.078 -0.21 -0.00    +0.000 C 
DOCKED: ENDBRANCH  13  15
DOCKED: BRANCH  13  17
DOCKED: ATOM     19  C   UNL     1      30.334  17.865 129.847 -0.40 -0.00    +0.000 C 
DOCKED: ATOM     20  C   UNL     1      29.834  18.225 128.440 -0.42 -0.00    +0.000 C 
DOCKED: ENDBRANCH  13  17
DOCKED: ENDBRANCH  12  13
DOCKED: ENDBRANCH   7  12
DOCKED: ENDBRANCH   1   2
DOCKED: BRANCH   1  19
DOCKED: ATOM     21  O   UNL     1      37.212  17.564 122.178 -0.15 -0.00    +0.000 OA
DOCKED: BRANCH  19  21
DOCKED: ATOM     22  O   UNL     1      37.889  15.771 123.464 -0.37 -0.00    +0.000 OA
DOCKED: ATOM     23  C   UNL     1      37.402  16.194 122.379 -0.27 -0.00    +0.000 C 
DOCKED: ATOM     24  N   UNL     1      37.077  15.284 121.320 -0.25 -0.00    +0.000 N 
DOCKED: ATOM     25  H   UNL     1      36.851  15.663 120.440 -0.01 -0.00    +0.000 HD
DOCKED: BRANCH  22  24
DOCKED: ATOM     26  C   UNL     1      37.059  13.853 121.458 -0.33 -0.00    +0.000 A 
DOCKED: ATOM     27  C   UNL     1      36.765  13.286 122.706 -0.49 -0.00    +0.000 A 
DOCKED: ATOM     28  C   UNL     1      36.762  11.898 122.872 -0.59 -0.00    +0.000 A 
DOCKED: ATOM     29  C   UNL     1      37.060  11.048 121.794 -0.46 -0.00    +0.000 A 
DOCKED: ATOM     30  C   UNL     1      37.389  11.619 120.551 -0.39 -0.00    +0.000 A 
DOCKED: ATOM     31  C   UNL     1      37.392  13.007 120.385 -0.43 -0.00    +0.000 A 
DOCKED: ATOM     32  CM  UNL     1      37.071  12.452 121.628 +0.00 -0.00    +0.000 AC
DOCKED: BRANCH  27  30
DOCKED: ATOM     33  C   UNL     1      37.057   9.577 121.986 -0.61 -0.00    +0.000 C 
DOCKED: ATOM     34  N   UNL     1      37.091   8.995 123.295 -0.62 -0.00    +0.000 N 
DOCKED: ATOM     35  O   UNL     1      37.038   8.819 120.979 -2.68 -0.00    +0.000 OA
DOCKED: ATOM     36  H   UNL     1      37.192   9.572 124.086 -0.56 -0.00    +0.000 HD
DOCKED: BRANCH  31  34
DOCKED: ATOM     37  O   UNL     1      36.985   7.653 123.449 -2.23 -0.00    +0.000 OA
DOCKED: ATOM     38  H   UNL     1      37.056   7.429 124.390 -0.54 -0.00    +0.000 HD
DOCKED: ENDBRANCH  31  34
DOCKED: ENDBRANCH  27  30
DOCKED: ENDBRANCH  22  24
DOCKED: ENDBRANCH  19  21
DOCKED: ENDBRANCH   1  19
DOCKED: TORSDOF 10DOCKED: TER
DOCKED: ENDMDL
________________________________________________________________________________


	BEGINNING GENETIC ALGORITHM DOCKING 53 of 100
Run: 53 Seed: 1100740494 2061385851 [ Run 53 of 100 GA/GALS ]
Beginning LAMARCKIAN GENETIC ALGORITHM (LGA), with a maximum of 2500000 energy evaluations.

Final-Value: -16.915


	FINAL GENETIC ALGORITHM DOCKED STATE
	_______________________________________________


Detailed state:  trans 36.572 17.633 120.112 quatxyzw 0.394670 0.047601 0.220217 0.890772 center 1.858 0.218 -0.021 ntor 10 75.7627 164.2214 1.8577 177.5497 -19.8084 -174.2185 -180.0000 122.6197 110.1491 38.5414
State:	 36.572  17.633 120.112   0.868  0.105  0.485 54.059     75.76  164.22    1.86  177.55  -19.81 -174.22 -180.00  122.62  110.15   38.54

DOCKED: MODEL       53
DOCKED: USER    Run = 53
DOCKED: USER    DPF = ligand_dock.biased.dpf
DOCKED: USER  
DOCKED: USER    Estimated Free Energy of Binding    =  -11.64 kcal/mol  [=(1)+(2)+(3)-(4)]
DOCKED: USER    Estimated Inhibition Constant, Ki   =    2.92 nM (nanomolar)  [Temperature = 298.15 K]
DOCKED: USER    
DOCKED: USER    (1) Final Intermolecular Energy     =  -14.63 kcal/mol
DOCKED: USER        vdW + Hbond + desolv Energy     =  -14.63 kcal/mol
DOCKED: USER        Electrostatic Energy            =   +0.00 kcal/mol
DOCKED: USER    (2) Final Total Internal Energy     =   -2.29 kcal/mol
DOCKED: USER    (3) Torsional Free Energy           =   +2.98 kcal/mol
DOCKED: USER    (4) Unbound System's Energy  [=(2)] =   -2.29 kcal/mol
DOCKED: USER    
DOCKED: USER    
DOCKED: USER    NEWDPF move ligand.dum.pdbqt
DOCKED: USER    NEWDPF about 1.858000 0.218000 -0.021000
DOCKED: USER    NEWDPF tran0 36.571779 17.633120 120.111922
DOCKED: USER    NEWDPF quaternion0 0.394670 0.047601 0.220217 0.890772
DOCKED: USER    NEWDPF axisangle0 0.868454 0.104745 0.484578 54.059187
DOCKED: USER    NEWDPF quat0 0.868454 0.104745 0.484578 54.059187
DOCKED: USER    NEWDPF dihe0 75.76 164.22 1.86 177.55 -19.81 -174.22 -180.00 122.62 110.15 38.54 
DOCKED: USER  keepresnum = 1 
DOCKED: USER  
DOCKED: REMARK  Name = 
DOCKED: REMARK  12 active torsions:
DOCKED: REMARK  status: ('A' for Active; 'I' for Inactive)
DOCKED: REMARK    1  A    between atoms: C_2  and  O_3
DOCKED: REMARK    2  A    between atoms: O_3  and  C_4
DOCKED: REMARK    3  A    between atoms: C_4  and  C_5
DOCKED: REMARK    4  A    between atoms: C_10  and  C_11
DOCKED: REMARK    5  A    between atoms: C_11  and  N_12
DOCKED: REMARK    6  A    between atoms: N_12  and  C_13
DOCKED: REMARK    7  A    between atoms: N_12  and  C_15
DOCKED: REMARK    8  A    between atoms: C_13  and  C_14
DOCKED: REMARK    9  A    between atoms: C_15  and  C_16
DOCKED: REMARK   10  A    between atoms: N_21  and  C_22
DOCKED: REMARK   11  A    between atoms: C_25  and  C_26
DOCKED: REMARK   12  A    between atoms: N_27  and  O_28
DOCKED: REMARK                            x       y       z     vdW  Elec       q    Type
DOCKED: REMARK                         _______ _______ _______ _____ _____    ______ ____
DOCKED: USER                              x       y       z     vdW  Elec       q    Type
DOCKED: USER                           _______ _______ _______ _____ _____    ______ ____
DOCKED: ROOT
DOCKED: ATOM      1  C   UNL     1      36.281  18.386 121.546 -0.19 -0.00    +0.000 C 
DOCKED: ENDROOT
DOCKED: BRANCH   1   2
DOCKED: ATOM      2  C   UNL     1      34.928  18.442 120.899 -0.26 -0.00    +0.000 A 
DOCKED: ATOM      3  C   UNL     1      33.773  18.197 121.656 -0.16 -0.00    +0.000 A 
DOCKED: ATOM      4  C   UNL     1      32.513  18.213 121.053 -0.19 -0.00    +0.000 A 
DOCKED: ATOM      5  C   UNL     1      32.393  18.461 119.678 -0.38 -0.00    +0.000 A 
DOCKED: ATOM      6  C   UNL     1      31.132  18.477 119.062 -0.38 -0.00    +0.000 A 
DOCKED: ATOM      7  C   UNL     1      31.018  18.721 117.684 -0.19 -0.00    +0.000 A 
DOCKED: ATOM      8  C   UNL     1      32.175  18.953 116.924 -0.10 -0.00    +0.000 A 
DOCKED: ATOM      9  C   UNL     1      33.434  18.937 117.528 -0.12 -0.00    +0.000 A 
DOCKED: ATOM     10  C   UNL     1      33.555  18.693 118.904 -0.24 -0.00    +0.000 A 
DOCKED: ATOM     11  C   UNL     1      34.815  18.675 119.520 -0.21 -0.00    +0.000 A 
DOCKED: ATOM     12  CM  UNL     1      33.663  18.447 120.285 +0.00 -0.00    +0.000 AC
DOCKED: ATOM     13  CM  UNL     1      32.285  18.707 118.296 +0.00 -0.00    +0.000 AC
DOCKED: BRANCH   7  12
DOCKED: ATOM     14  C   UNL     1      29.667  18.760 117.020 -0.16 -0.00    +0.000 C 
DOCKED: BRANCH  12  13
DOCKED: ATOM     15  N   UNL     1      29.008  17.441 117.130 -0.22 -0.00    +0.000 N 
DOCKED: ATOM     16  H   UNL     1      28.440  17.300 116.296 +0.00 -0.00    +0.000 HD
DOCKED: BRANCH  13  15
DOCKED: ATOM     17  C   UNL     1      28.062  17.402 118.270 -0.43 -0.00    +0.000 C 
DOCKED: ATOM     18  C   UNL     1      28.466  16.359 119.311 -0.51 -0.00    +0.000 C 
DOCKED: ENDBRANCH  13  15
DOCKED: BRANCH  13  17
DOCKED: ATOM     19  C   UNL     1      29.987  16.325 117.115 -0.33 -0.00    +0.000 C 
DOCKED: ATOM     20  C   UNL     1      29.668  15.218 116.100 -0.36 -0.00    +0.000 C 
DOCKED: ENDBRANCH  13  17
DOCKED: ENDBRANCH  12  13
DOCKED: ENDBRANCH   7  12
DOCKED: ENDBRANCH   1   2
DOCKED: BRANCH   1  19
DOCKED: ATOM     21  O   UNL     1      37.130  17.533 120.784 -0.12 -0.00    +0.000 OA
DOCKED: BRANCH  19  21
DOCKED: ATOM     22  O   UNL     1      36.763  15.577 119.616 -0.22 -0.00    +0.000 OA
DOCKED: ATOM     23  C   UNL     1      36.953  16.148 120.726 -0.20 -0.00    +0.000 C 
DOCKED: ATOM     24  N   UNL     1      36.945  15.395 121.945 -0.27 -0.00    +0.000 N 
DOCKED: ATOM     25  H   UNL     1      36.937  15.894 122.794 -0.00 -0.00    +0.000 HD
DOCKED: BRANCH  22  24
DOCKED: ATOM     26  C   UNL     1      36.949  13.958 122.012 -0.35 -0.00    +0.000 A 
DOCKED: ATOM     27  C   UNL     1      37.614  13.226 121.020 -0.42 -0.00    +0.000 A 
DOCKED: ATOM     28  C   UNL     1      37.614  11.829 121.049 -0.28 -0.00    +0.000 A 
DOCKED: ATOM     29  C   UNL     1      36.941  11.134 122.068 -0.51 -0.00    +0.000 A 
DOCKED: ATOM     30  C   UNL     1      36.244  11.870 123.044 -0.61 -0.00    +0.000 A 
DOCKED: ATOM     31  C   UNL     1      36.245  13.268 123.014 -0.48 -0.00    +0.000 A 
DOCKED: ATOM     32  CM  UNL     1      36.935  12.547 122.034 +0.00 -0.00    +0.000 AC
DOCKED: BRANCH  27  30
DOCKED: ATOM     33  C   UNL     1      36.947   9.651 122.084 -0.63 -0.00    +0.000 C 
DOCKED: ATOM     34  N   UNL     1      37.136   8.917 123.300 -0.61 -0.00    +0.000 N 
DOCKED: ATOM     35  O   UNL     1      36.797   9.018 121.004 -2.64 -0.00    +0.000 OA
DOCKED: ATOM     36  H   UNL     1      37.339   9.397 124.135 -0.59 -0.00    +0.000 HD
DOCKED: BRANCH  31  34
DOCKED: ATOM     37  O   UNL     1      37.036   7.566 123.305 -2.23 -0.00    +0.000 OA
DOCKED: ATOM     38  H   UNL     1      36.862   7.251 122.405 -0.06 -0.00    +0.000 HD
DOCKED: ENDBRANCH  31  34
DOCKED: ENDBRANCH  27  30
DOCKED: ENDBRANCH  22  24
DOCKED: ENDBRANCH  19  21
DOCKED: ENDBRANCH   1  19
DOCKED: TORSDOF 10DOCKED: TER
DOCKED: ENDMDL
________________________________________________________________________________


	BEGINNING GENETIC ALGORITHM DOCKING 54 of 100
Run: 54 Seed: 1864358018 714592688 [ Run 54 of 100 GA/GALS ]
Beginning LAMARCKIAN GENETIC ALGORITHM (LGA), with a maximum of 2500000 energy evaluations.

Final-Value: -17.822


	FINAL GENETIC ALGORITHM DOCKED STATE
	_______________________________________________


Detailed state:  trans 36.949 16.872 122.686 quatxyzw -0.902887 0.088198 0.354251 -0.226986 center 1.858 0.218 -0.021 ntor 10 -108.2328 121.8151 22.5523 -179.9743 -9.1099 -171.7264 149.6276 101.6699 -98.3354 -166.1124
State:	 36.949  16.872 122.686  -0.927  0.091  0.364 -153.761   -108.23  121.82   22.55 -179.97   -9.11 -171.73  149.63  101.67  -98.34 -166.11

DOCKED: MODEL       54
DOCKED: USER    Run = 54
DOCKED: USER    DPF = ligand_dock.biased.dpf
DOCKED: USER  
DOCKED: USER    Estimated Free Energy of Binding    =  -12.91 kcal/mol  [=(1)+(2)+(3)-(4)]
DOCKED: USER    Estimated Inhibition Constant, Ki   =  343.85 pM (picomolar)  [Temperature = 298.15 K]
DOCKED: USER    
DOCKED: USER    (1) Final Intermolecular Energy     =  -15.89 kcal/mol
DOCKED: USER        vdW + Hbond + desolv Energy     =  -15.89 kcal/mol
DOCKED: USER        Electrostatic Energy            =   +0.00 kcal/mol
DOCKED: USER    (2) Final Total Internal Energy     =   -1.93 kcal/mol
DOCKED: USER    (3) Torsional Free Energy           =   +2.98 kcal/mol
DOCKED: USER    (4) Unbound System's Energy  [=(2)] =   -1.93 kcal/mol
DOCKED: USER    
DOCKED: USER    
DOCKED: USER    NEWDPF move ligand.dum.pdbqt
DOCKED: USER    NEWDPF about 1.858000 0.218000 -0.021000
DOCKED: USER    NEWDPF tran0 36.948720 16.871962 122.686128
DOCKED: USER    NEWDPF quaternion0 -0.902887 0.088198 0.354251 -0.226986
DOCKED: USER    NEWDPF axisangle0 -0.927086 0.090562 0.363746 -153.760583
DOCKED: USER    NEWDPF quat0 -0.927086 0.090562 0.363746 -153.760583
DOCKED: USER    NEWDPF dihe0 -108.23 121.82 22.55 -179.97 -9.11 -171.73 149.63 101.67 -98.34 -166.11 
DOCKED: USER  keepresnum = 1 
DOCKED: USER  
DOCKED: REMARK  Name = 
DOCKED: REMARK  12 active torsions:
DOCKED: REMARK  status: ('A' for Active; 'I' for Inactive)
DOCKED: REMARK    1  A    between atoms: C_2  and  O_3
DOCKED: REMARK    2  A    between atoms: O_3  and  C_4
DOCKED: REMARK    3  A    between atoms: C_4  and  C_5
DOCKED: REMARK    4  A    between atoms: C_10  and  C_11
DOCKED: REMARK    5  A    between atoms: C_11  and  N_12
DOCKED: REMARK    6  A    between atoms: N_12  and  C_13
DOCKED: REMARK    7  A    between atoms: N_12  and  C_15
DOCKED: REMARK    8  A    between atoms: C_13  and  C_14
DOCKED: REMARK    9  A    between atoms: C_15  and  C_16
DOCKED: REMARK   10  A    between atoms: N_21  and  C_22
DOCKED: REMARK   11  A    between atoms: C_25  and  C_26
DOCKED: REMARK   12  A    between atoms: N_27  and  O_28
DOCKED: REMARK                            x       y       z     vdW  Elec       q    Type
DOCKED: REMARK                         _______ _______ _______ _____ _____    ______ ____
DOCKED: USER                              x       y       z     vdW  Elec       q    Type
DOCKED: USER                           _______ _______ _______ _____ _____    ______ ____
DOCKED: ROOT
DOCKED: ATOM      1  C   UNL     1      36.145  18.160 122.052 -0.22 -0.00    +0.000 C 
DOCKED: ENDROOT
DOCKED: BRANCH   1   2
DOCKED: ATOM      2  C   UNL     1      35.463  18.006 123.381 -0.26 -0.00    +0.000 A 
DOCKED: ATOM      3  C   UNL     1      34.696  16.863 123.652 -0.41 -0.00    +0.000 A 
DOCKED: ATOM      4  C   UNL     1      34.030  16.729 124.873 -0.39 -0.00    +0.000 A 
DOCKED: ATOM      5  C   UNL     1      34.111  17.746 125.835 -0.34 -0.00    +0.000 A 
DOCKED: ATOM      6  C   UNL     1      33.443  17.621 127.063 -0.32 -0.00    +0.000 A 
DOCKED: ATOM      7  C   UNL     1      33.524  18.645 128.021 -0.17 -0.00    +0.000 A 
DOCKED: ATOM      8  C   UNL     1      34.279  19.795 127.744 -0.10 -0.00    +0.000 A 
DOCKED: ATOM      9  C   UNL     1      34.945  19.928 126.523 -0.14 -0.00    +0.000 A 
DOCKED: ATOM     10  C   UNL     1      34.868  18.910 125.563 -0.23 -0.00    +0.000 A 
DOCKED: ATOM     11  C   UNL     1      35.534  19.034 124.334 -0.21 -0.00    +0.000 A 
DOCKED: ATOM     12  CM  UNL     1      34.784  17.881 124.606 -0.42 -0.00    +0.000 AC
DOCKED: ATOM     13  CM  UNL     1      34.195  18.775 126.791 -0.02 -0.00    +0.000 AC
DOCKED: BRANCH   7  12
DOCKED: ATOM     14  C   UNL     1      32.826  18.511 129.350 -0.15 -0.00    +0.000 C 
DOCKED: BRANCH  12  13
DOCKED: ATOM     15  N   UNL     1      31.370  18.362 129.146 -0.24 -0.00    +0.000 N 
DOCKED: ATOM     16  H   UNL     1      30.893  18.839 129.911 +0.00 -0.00    +0.000 HD
DOCKED: BRANCH  13  15
DOCKED: ATOM     17  C   UNL     1      30.952  16.943 129.237 -0.46 -0.00    +0.000 C 
DOCKED: ATOM     18  C   UNL     1      31.327  16.323 130.583 -0.35 -0.00    +0.000 C 
DOCKED: ENDBRANCH  13  15
DOCKED: BRANCH  13  17
DOCKED: ATOM     19  C   UNL     1      30.904  19.055 127.919 -0.31 -0.00    +0.000 C 
DOCKED: ATOM     20  C   UNL     1      29.377  19.111 127.767 -0.48 -0.00    +0.000 C 
DOCKED: ENDBRANCH  13  17
DOCKED: ENDBRANCH  12  13
DOCKED: ENDBRANCH   7  12
DOCKED: ENDBRANCH   1   2
DOCKED: BRANCH   1  19
DOCKED: ATOM     21  O   UNL     1      37.297  17.325 122.017 -0.16 -0.00    +0.000 OA
DOCKED: BRANCH  19  21
DOCKED: ATOM     22  O   UNL     1      37.523  15.540 120.573 -0.22 -0.00    +0.000 OA
DOCKED: ATOM     23  C   UNL     1      37.231  15.959 121.727 -0.25 -0.00    +0.000 C 
DOCKED: ATOM     24  N   UNL     1      36.786  15.052 122.743 -0.36 -0.00    +0.000 N 
DOCKED: ATOM     25  H   UNL     1      36.419  15.434 123.573 -0.02 -0.00    +0.000 HD
DOCKED: BRANCH  22  24
DOCKED: ATOM     26  C   UNL     1      36.839  13.619 122.631 -0.46 -0.00    +0.000 A 
DOCKED: ATOM     27  C   UNL     1      37.396  13.039 121.483 -0.44 -0.00    +0.000 A 
DOCKED: ATOM     28  C   UNL     1      37.441  11.650 121.340 -0.35 -0.00    +0.000 A 
DOCKED: ATOM     29  C   UNL     1      36.921  10.810 122.340 -0.52 -0.00    +0.000 A 
DOCKED: ATOM     30  C   UNL     1      36.331  11.394 123.476 -0.63 -0.00    +0.000 A 
DOCKED: ATOM     31  C   UNL     1      36.287  12.784 123.619 -0.58 -0.00    +0.000 A 
DOCKED: ATOM     32  CM  UNL     1      36.869  12.216 122.481 +0.00 -0.00    +0.000 AC
DOCKED: BRANCH  27  30
DOCKED: ATOM     33  C   UNL     1      36.972   9.337 122.172 -0.66 -0.00    +0.000 C 
DOCKED: ATOM     34  N   UNL     1      37.109   8.462 123.298 -0.69 -0.00    +0.000 N 
DOCKED: ATOM     35  O   UNL     1      36.907   8.841 121.015 -2.67 -0.00    +0.000 OA
DOCKED: ATOM     36  H   UNL     1      37.246   8.837 124.198 -0.56 -0.00    +0.000 HD
DOCKED: BRANCH  31  34
DOCKED: ATOM     37  O   UNL     1      37.051   7.119 123.130 -1.93 -0.00    +0.000 OA
DOCKED: ATOM     38  H   UNL     1      37.269   6.898 122.211 -0.22 -0.00    +0.000 HD
DOCKED: ENDBRANCH  31  34
DOCKED: ENDBRANCH  27  30
DOCKED: ENDBRANCH  22  24
DOCKED: ENDBRANCH  19  21
DOCKED: ENDBRANCH   1  19
DOCKED: TORSDOF 10DOCKED: TER
DOCKED: ENDMDL
________________________________________________________________________________


	BEGINNING GENETIC ALGORITHM DOCKING 55 of 100
Run: 55 Seed: 1488099495 1736276614 [ Run 55 of 100 GA/GALS ]
Beginning LAMARCKIAN GENETIC ALGORITHM (LGA), with a maximum of 2500000 energy evaluations.

Final-Value: -18.046


	FINAL GENETIC ALGORITHM DOCKED STATE
	_______________________________________________


Detailed state:  trans 35.359 17.728 123.384 quatxyzw 0.475399 -0.395689 -0.021823 0.785462 center 1.858 0.218 -0.021 ntor 10 -177.7030 -152.5664 17.4405 -168.9824 175.4106 173.4667 167.5245 16.6431 94.0134 153.9938
State:	 35.359  17.728 123.384   0.768 -0.639 -0.035 76.473   -177.70 -152.57   17.44 -168.98  175.41  173.47  167.52   16.64   94.01  153.99

DOCKED: MODEL       55
DOCKED: USER    Run = 55
DOCKED: USER    DPF = ligand_dock.biased.dpf
DOCKED: USER  
DOCKED: USER    Estimated Free Energy of Binding    =  -13.10 kcal/mol  [=(1)+(2)+(3)-(4)]
DOCKED: USER    Estimated Inhibition Constant, Ki   =  251.18 pM (picomolar)  [Temperature = 298.15 K]
DOCKED: USER    
DOCKED: USER    (1) Final Intermolecular Energy     =  -16.08 kcal/mol
DOCKED: USER        vdW + Hbond + desolv Energy     =  -16.08 kcal/mol
DOCKED: USER        Electrostatic Energy            =   +0.00 kcal/mol
DOCKED: USER    (2) Final Total Internal Energy     =   -1.97 kcal/mol
DOCKED: USER    (3) Torsional Free Energy           =   +2.98 kcal/mol
DOCKED: USER    (4) Unbound System's Energy  [=(2)] =   -1.97 kcal/mol
DOCKED: USER    
DOCKED: USER    
DOCKED: USER    NEWDPF move ligand.dum.pdbqt
DOCKED: USER    NEWDPF about 1.858000 0.218000 -0.021000
DOCKED: USER    NEWDPF tran0 35.359134 17.728115 123.383683
DOCKED: USER    NEWDPF quaternion0 0.475399 -0.395689 -0.021823 0.785462
DOCKED: USER    NEWDPF axisangle0 0.768122 -0.639332 -0.035260 76.473226
DOCKED: USER    NEWDPF quat0 0.768122 -0.639332 -0.035260 76.473226
DOCKED: USER    NEWDPF dihe0 -177.70 -152.57 17.44 -168.98 175.41 173.47 167.52 16.64 94.01 153.99 
DOCKED: USER  keepresnum = 1 
DOCKED: USER  
DOCKED: REMARK  Name = 
DOCKED: REMARK  12 active torsions:
DOCKED: REMARK  status: ('A' for Active; 'I' for Inactive)
DOCKED: REMARK    1  A    between atoms: C_2  and  O_3
DOCKED: REMARK    2  A    between atoms: O_3  and  C_4
DOCKED: REMARK    3  A    between atoms: C_4  and  C_5
DOCKED: REMARK    4  A    between atoms: C_10  and  C_11
DOCKED: REMARK    5  A    between atoms: C_11  and  N_12
DOCKED: REMARK    6  A    between atoms: N_12  and  C_13
DOCKED: REMARK    7  A    between atoms: N_12  and  C_15
DOCKED: REMARK    8  A    between atoms: C_13  and  C_14
DOCKED: REMARK    9  A    between atoms: C_15  and  C_16
DOCKED: REMARK   10  A    between atoms: N_21  and  C_22
DOCKED: REMARK   11  A    between atoms: C_25  and  C_26
DOCKED: REMARK   12  A    between atoms: N_27  and  O_28
DOCKED: REMARK                            x       y       z     vdW  Elec       q    Type
DOCKED: REMARK                         _______ _______ _______ _____ _____    ______ ____
DOCKED: USER                              x       y       z     vdW  Elec       q    Type
DOCKED: USER                           _______ _______ _______ _____ _____    ______ ____
DOCKED: ROOT
DOCKED: ATOM      1  C   UNL     1      36.423  18.568 124.317 -0.22 -0.00    +0.000 C 
DOCKED: ENDROOT
DOCKED: BRANCH   1   2
DOCKED: ATOM      2  C   UNL     1      35.191  18.590 125.174 -0.24 -0.00    +0.000 A 
DOCKED: ATOM      3  C   UNL     1      34.438  19.768 125.297 -0.13 -0.00    +0.000 A 
DOCKED: ATOM      4  C   UNL     1      33.310  19.805 126.121 -0.18 -0.00    +0.000 A 
DOCKED: ATOM      5  C   UNL     1      32.928  18.667 126.845 -0.25 -0.00    +0.000 A 
DOCKED: ATOM      6  C   UNL     1      31.797  18.695 127.676 -0.20 -0.00    +0.000 A 
DOCKED: ATOM      7  C   UNL     1      31.423  17.554 128.403 -0.34 -0.00    +0.000 A 
DOCKED: ATOM      8  C   UNL     1      32.184  16.380 128.291 -0.39 -0.00    +0.000 A 
DOCKED: ATOM      9  C   UNL     1      33.311  16.344 127.467 -0.38 -0.00    +0.000 A 
DOCKED: ATOM     10  C   UNL     1      33.692  17.480 126.739 -0.34 -0.00    +0.000 A 
DOCKED: ATOM     11  C   UNL     1      34.822  17.453 125.909 -0.21 -0.00    +0.000 A 
DOCKED: ATOM     12  CM  UNL     1      34.064  18.627 126.014 -0.10 -0.00    +0.000 AC
DOCKED: ATOM     13  CM  UNL     1      32.556  17.520 127.571 +0.00 -0.00    +0.000 AC
DOCKED: BRANCH   7  12
DOCKED: ATOM     14  C   UNL     1      30.200  17.570 129.283 -0.43 -0.00    +0.000 C 
DOCKED: BRANCH  12  13
DOCKED: ATOM     15  N   UNL     1      30.476  18.325 130.524 -0.30 -0.00    +0.000 N 
DOCKED: ATOM     16  H   UNL     1      30.125  17.781 131.311 -0.53 -0.00    +0.000 HD
DOCKED: BRANCH  13  15
DOCKED: ATOM     17  C   UNL     1      29.729  19.605 130.556 -0.31 -0.00    +0.000 C 
DOCKED: ATOM     18  C   UNL     1      29.105  19.936 129.202 -0.36 -0.00    +0.000 C 
DOCKED: ENDBRANCH  13  15
DOCKED: BRANCH  13  17
DOCKED: ATOM     19  C   UNL     1      31.932  18.465 130.779 -0.18 -0.00    +0.000 C 
DOCKED: ATOM     20  C   UNL     1      32.558  17.281 131.530 -0.21 -0.00    +0.000 C 
DOCKED: ENDBRANCH  13  17
DOCKED: ENDBRANCH  12  13
DOCKED: ENDBRANCH   7  12
DOCKED: ENDBRANCH   1   2
DOCKED: BRANCH   1  19
DOCKED: ATOM     21  O   UNL     1      36.224  17.667 123.232 -0.23 -0.00    +0.000 OA
DOCKED: BRANCH  19  21
DOCKED: ATOM     22  O   UNL     1      36.617  15.757 124.466 -0.21 -0.00    +0.000 OA
DOCKED: ATOM     23  C   UNL     1      36.478  16.297 123.333 -0.35 -0.00    +0.000 C 
DOCKED: ATOM     24  N   UNL     1      36.622  15.525 122.134 -0.27 -0.00    +0.000 N 
DOCKED: ATOM     25  H   UNL     1      36.664  16.009 121.278 -0.00 -0.00    +0.000 HD
DOCKED: BRANCH  22  24
DOCKED: ATOM     26  C   UNL     1      36.709  14.090 122.098 -0.29 -0.00    +0.000 A 
DOCKED: ATOM     27  C   UNL     1      36.244  13.345 123.190 -0.51 -0.00    +0.000 A 
DOCKED: ATOM     28  C   UNL     1      36.336  11.951 123.190 -0.62 -0.00    +0.000 A 
DOCKED: ATOM     29  C   UNL     1      36.905  11.272 122.099 -0.52 -0.00    +0.000 A 
DOCKED: ATOM     30  C   UNL     1      37.404  12.022 121.019 -0.46 -0.00    +0.000 A 
DOCKED: ATOM     31  C   UNL     1      37.311  13.417 121.020 -0.39 -0.00    +0.000 A 
DOCKED: ATOM     32  CM  UNL     1      36.818  12.683 122.103 +0.00 -0.00    +0.000 AC
DOCKED: BRANCH  27  30
DOCKED: ATOM     33  C   UNL     1      37.000   9.792 122.115 -0.60 -0.00    +0.000 C 
DOCKED: ATOM     34  N   UNL     1      37.085   9.061 123.345 -0.60 -0.00    +0.000 N 
DOCKED: ATOM     35  O   UNL     1      37.022   9.159 121.025 -2.72 -0.00    +0.000 OA
DOCKED: ATOM     36  H   UNL     1      37.155   9.546 124.199 -0.59 -0.00    +0.000 HD
DOCKED: BRANCH  31  34
DOCKED: ATOM     37  O   UNL     1      37.069   7.707 123.338 -2.31 -0.00    +0.000 OA
DOCKED: ATOM     38  H   UNL     1      37.272   7.386 122.446 -0.12 -0.00    +0.000 HD
DOCKED: ENDBRANCH  31  34
DOCKED: ENDBRANCH  27  30
DOCKED: ENDBRANCH  22  24
DOCKED: ENDBRANCH  19  21
DOCKED: ENDBRANCH   1  19
DOCKED: TORSDOF 10DOCKED: TER
DOCKED: ENDMDL
________________________________________________________________________________


	BEGINNING GENETIC ALGORITHM DOCKING 56 of 100
Run: 56 Seed: 648312630 407144783 [ Run 56 of 100 GA/GALS ]
Beginning LAMARCKIAN GENETIC ALGORITHM (LGA), with a maximum of 2500000 energy evaluations.

Final-Value: -17.224


	FINAL GENETIC ALGORITHM DOCKED STATE
	_______________________________________________


Detailed state:  trans 36.782 17.185 121.573 quatxyzw 0.848554 -0.132462 -0.376467 0.347395 center 1.858 0.218 -0.021 ntor 10 156.1965 108.6576 9.5857 -66.5871 -12.4069 -154.3935 -171.8239 81.4566 -125.9954 167.4634
State:	 36.782  17.185 121.573   0.905 -0.141 -0.401 139.344    156.20  108.66    9.59  -66.59  -12.41 -154.39 -171.82   81.46 -126.00  167.46

DOCKED: MODEL       56
DOCKED: USER    Run = 56
DOCKED: USER    DPF = ligand_dock.biased.dpf
DOCKED: USER  
DOCKED: USER    Estimated Free Energy of Binding    =  -11.87 kcal/mol  [=(1)+(2)+(3)-(4)]
DOCKED: USER    Estimated Inhibition Constant, Ki   =    1.98 nM (nanomolar)  [Temperature = 298.15 K]
DOCKED: USER    
DOCKED: USER    (1) Final Intermolecular Energy     =  -14.86 kcal/mol
DOCKED: USER        vdW + Hbond + desolv Energy     =  -14.86 kcal/mol
DOCKED: USER        Electrostatic Energy            =   +0.00 kcal/mol
DOCKED: USER    (2) Final Total Internal Energy     =   -2.37 kcal/mol
DOCKED: USER    (3) Torsional Free Energy           =   +2.98 kcal/mol
DOCKED: USER    (4) Unbound System's Energy  [=(2)] =   -2.37 kcal/mol
DOCKED: USER    
DOCKED: USER    
DOCKED: USER    NEWDPF move ligand.dum.pdbqt
DOCKED: USER    NEWDPF about 1.858000 0.218000 -0.021000
DOCKED: USER    NEWDPF tran0 36.781823 17.184791 121.573416
DOCKED: USER    NEWDPF quaternion0 0.848554 -0.132462 -0.376467 0.347395
DOCKED: USER    NEWDPF axisangle0 0.904913 -0.141260 -0.401471 139.343873
DOCKED: USER    NEWDPF quat0 0.904913 -0.141260 -0.401471 139.343873
DOCKED: USER    NEWDPF dihe0 156.20 108.66 9.59 -66.59 -12.41 -154.39 -171.82 81.46 -126.00 167.46 
DOCKED: USER  keepresnum = 1 
DOCKED: USER  
DOCKED: REMARK  Name = 
DOCKED: REMARK  12 active torsions:
DOCKED: REMARK  status: ('A' for Active; 'I' for Inactive)
DOCKED: REMARK    1  A    between atoms: C_2  and  O_3
DOCKED: REMARK    2  A    between atoms: O_3  and  C_4
DOCKED: REMARK    3  A    between atoms: C_4  and  C_5
DOCKED: REMARK    4  A    between atoms: C_10  and  C_11
DOCKED: REMARK    5  A    between atoms: C_11  and  N_12
DOCKED: REMARK    6  A    between atoms: N_12  and  C_13
DOCKED: REMARK    7  A    between atoms: N_12  and  C_15
DOCKED: REMARK    8  A    between atoms: C_13  and  C_14
DOCKED: REMARK    9  A    between atoms: C_15  and  C_16
DOCKED: REMARK   10  A    between atoms: N_21  and  C_22
DOCKED: REMARK   11  A    between atoms: C_25  and  C_26
DOCKED: REMARK   12  A    between atoms: N_27  and  O_28
DOCKED: REMARK                            x       y       z     vdW  Elec       q    Type
DOCKED: REMARK                         _______ _______ _______ _____ _____    ______ ____
DOCKED: USER                              x       y       z     vdW  Elec       q    Type
DOCKED: USER                           _______ _______ _______ _____ _____    ______ ____
DOCKED: ROOT
DOCKED: ATOM      1  C   UNL     1      36.175  18.689 121.298 -0.19 -0.00    +0.000 C 
DOCKED: ENDROOT
DOCKED: BRANCH   1   2
DOCKED: ATOM      2  C   UNL     1      35.556  18.355 122.624 -0.24 -0.00    +0.000 A 
DOCKED: ATOM      3  C   UNL     1      34.289  17.754 122.681 -0.34 -0.00    +0.000 A 
DOCKED: ATOM      4  C   UNL     1      33.693  17.473 123.912 -0.11 -0.00    +0.000 A 
DOCKED: ATOM      5  C   UNL     1      34.351  17.804 125.106 -0.35 -0.00    +0.000 A 
DOCKED: ATOM      6  C   UNL     1      33.758  17.526 126.348 -0.35 -0.00    +0.000 A 
DOCKED: ATOM      7  C   UNL     1      34.419  17.864 127.540 -0.19 -0.00    +0.000 A 
DOCKED: ATOM      8  C   UNL     1      35.680  18.478 127.483 -0.05 -0.00    +0.000 A 
DOCKED: ATOM      9  C   UNL     1      36.276  18.758 126.251 -0.15 -0.00    +0.000 A 
DOCKED: ATOM     10  C   UNL     1      35.621  18.425 125.057 -0.23 -0.00    +0.000 A 
DOCKED: ATOM     11  C   UNL     1      36.212  18.702 123.815 -0.19 -0.00    +0.000 A 
DOCKED: ATOM     12  CM  UNL     1      34.954  18.086 123.866 -0.17 -0.00    +0.000 AC
DOCKED: ATOM     13  CM  UNL     1      35.018  18.143 126.298 -0.15 -0.00    +0.000 AC
DOCKED: BRANCH   7  12
DOCKED: ATOM     14  C   UNL     1      33.799  17.553 128.877 -0.25 -0.00    +0.000 C 
DOCKED: BRANCH  12  13
DOCKED: ATOM     15  N   UNL     1      32.359  17.886 128.860 -0.23 -0.00    +0.000 N 
DOCKED: ATOM     16  H   UNL     1      32.224  18.676 128.229 +0.00 -0.00    +0.000 HD
DOCKED: BRANCH  13  15
DOCKED: ATOM     17  C   UNL     1      31.895  18.351 130.188 -0.21 -0.00    +0.000 C 
DOCKED: ATOM     18  C   UNL     1      32.561  17.582 131.327 -0.21 -0.00    +0.000 C 
DOCKED: ENDBRANCH  13  15
DOCKED: BRANCH  13  17
DOCKED: ATOM     19  C   UNL     1      31.540  16.793 128.279 -0.46 -0.00    +0.000 C 
DOCKED: ATOM     20  C   UNL     1      30.025  17.040 128.336 -0.45 -0.00    +0.000 C 
DOCKED: ENDBRANCH  13  17
DOCKED: ENDBRANCH  12  13
DOCKED: ENDBRANCH   7  12
DOCKED: ENDBRANCH   1   2
DOCKED: BRANCH   1  19
DOCKED: ATOM     21  O   UNL     1      37.163  17.713 120.982 -0.12 -0.00    +0.000 OA
DOCKED: BRANCH  19  21
DOCKED: ATOM     22  O   UNL     1      36.326  15.815 119.972 -0.21 -0.00    +0.000 OA
DOCKED: ATOM     23  C   UNL     1      36.892  16.343 120.969 -0.20 -0.00    +0.000 C 
DOCKED: ATOM     24  N   UNL     1      37.227  15.555 122.119 -0.26 -0.00    +0.000 N 
DOCKED: ATOM     25  H   UNL     1      37.520  16.029 122.932 -0.01 -0.00    +0.000 HD
DOCKED: BRANCH  22  24
DOCKED: ATOM     26  C   UNL     1      37.165  14.120 122.167 -0.38 -0.00    +0.000 A 
DOCKED: ATOM     27  C   UNL     1      37.600  13.376 121.061 -0.41 -0.00    +0.000 A 
DOCKED: ATOM     28  C   UNL     1      37.530  11.980 121.072 -0.39 -0.00    +0.000 A 
DOCKED: ATOM     29  C   UNL     1      37.015  11.299 122.188 -0.50 -0.00    +0.000 A 
DOCKED: ATOM     30  C   UNL     1      36.546  12.047 123.283 -0.61 -0.00    +0.000 A 
DOCKED: ATOM     31  C   UNL     1      36.617  13.444 123.271 -0.52 -0.00    +0.000 A 
DOCKED: ATOM     32  CM  UNL     1      37.078  12.711 122.173 +0.00 -0.00    +0.000 AC
DOCKED: BRANCH  27  30
DOCKED: ATOM     33  C   UNL     1      36.943   9.817 122.184 -0.62 -0.00    +0.000 C 
DOCKED: ATOM     34  N   UNL     1      37.155   9.056 123.379 -0.56 -0.00    +0.000 N 
DOCKED: ATOM     35  O   UNL     1      36.703   9.210 121.105 -2.62 -0.00    +0.000 OA
DOCKED: ATOM     36  H   UNL     1      37.427   9.511 124.209 -0.63 -0.00    +0.000 HD
DOCKED: BRANCH  31  34
DOCKED: ATOM     37  O   UNL     1      36.985   7.712 123.372 -2.27 -0.00    +0.000 OA
DOCKED: ATOM     38  H   UNL     1      36.869   7.405 122.460 -0.05 -0.00    +0.000 HD
DOCKED: ENDBRANCH  31  34
DOCKED: ENDBRANCH  27  30
DOCKED: ENDBRANCH  22  24
DOCKED: ENDBRANCH  19  21
DOCKED: ENDBRANCH   1  19
DOCKED: TORSDOF 10DOCKED: TER
DOCKED: ENDMDL
________________________________________________________________________________


	BEGINNING GENETIC ALGORITHM DOCKING 57 of 100
Run: 57 Seed: 381597980 1650082908 [ Run 57 of 100 GA/GALS ]
Beginning LAMARCKIAN GENETIC ALGORITHM (LGA), with a maximum of 2500000 energy evaluations.

Final-Value: -17.495


	FINAL GENETIC ALGORITHM DOCKED STATE
	_______________________________________________


Detailed state:  trans 34.940 17.049 122.943 quatxyzw -0.762391 0.013831 -0.623663 -0.172082 center 1.858 0.218 -0.021 ntor 10 -55.3238 46.1262 14.7424 108.7972 177.9675 143.3456 124.1598 174.1104 -82.0094 103.7785
State:	 34.940  17.049 122.943  -0.774  0.014 -0.633 -160.182    -55.32   46.13   14.74  108.80  177.97  143.35  124.16  174.11  -82.01  103.78

DOCKED: MODEL       57
DOCKED: USER    Run = 57
DOCKED: USER    DPF = ligand_dock.biased.dpf
DOCKED: USER  
DOCKED: USER    Estimated Free Energy of Binding    =  -12.40 kcal/mol  [=(1)+(2)+(3)-(4)]
DOCKED: USER    Estimated Inhibition Constant, Ki   =  809.28 pM (picomolar)  [Temperature = 298.15 K]
DOCKED: USER    
DOCKED: USER    (1) Final Intermolecular Energy     =  -15.39 kcal/mol
DOCKED: USER        vdW + Hbond + desolv Energy     =  -15.39 kcal/mol
DOCKED: USER        Electrostatic Energy            =   +0.00 kcal/mol
DOCKED: USER    (2) Final Total Internal Energy     =   -2.11 kcal/mol
DOCKED: USER    (3) Torsional Free Energy           =   +2.98 kcal/mol
DOCKED: USER    (4) Unbound System's Energy  [=(2)] =   -2.11 kcal/mol
DOCKED: USER    
DOCKED: USER    
DOCKED: USER    NEWDPF move ligand.dum.pdbqt
DOCKED: USER    NEWDPF about 1.858000 0.218000 -0.021000
DOCKED: USER    NEWDPF tran0 34.940141 17.049430 122.943150
DOCKED: USER    NEWDPF quaternion0 -0.762391 0.013831 -0.623663 -0.172082
DOCKED: USER    NEWDPF axisangle0 -0.773936 0.014041 -0.633108 -160.182270
DOCKED: USER    NEWDPF quat0 -0.773936 0.014041 -0.633108 -160.182270
DOCKED: USER    NEWDPF dihe0 -55.32 46.13 14.74 108.80 177.97 143.35 124.16 174.11 -82.01 103.78 
DOCKED: USER  keepresnum = 1 
DOCKED: USER  
DOCKED: REMARK  Name = 
DOCKED: REMARK  12 active torsions:
DOCKED: REMARK  status: ('A' for Active; 'I' for Inactive)
DOCKED: REMARK    1  A    between atoms: C_2  and  O_3
DOCKED: REMARK    2  A    between atoms: O_3  and  C_4
DOCKED: REMARK    3  A    between atoms: C_4  and  C_5
DOCKED: REMARK    4  A    between atoms: C_10  and  C_11
DOCKED: REMARK    5  A    between atoms: C_11  and  N_12
DOCKED: REMARK    6  A    between atoms: N_12  and  C_13
DOCKED: REMARK    7  A    between atoms: N_12  and  C_15
DOCKED: REMARK    8  A    between atoms: C_13  and  C_14
DOCKED: REMARK    9  A    between atoms: C_15  and  C_16
DOCKED: REMARK   10  A    between atoms: N_21  and  C_22
DOCKED: REMARK   11  A    between atoms: C_25  and  C_26
DOCKED: REMARK   12  A    between atoms: N_27  and  O_28
DOCKED: REMARK                            x       y       z     vdW  Elec       q    Type
DOCKED: REMARK                         _______ _______ _______ _____ _____    ______ ____
DOCKED: USER                              x       y       z     vdW  Elec       q    Type
DOCKED: USER                           _______ _______ _______ _____ _____    ______ ____
DOCKED: ROOT
DOCKED: ATOM      1  C   UNL     1      36.212  18.073 122.734 -0.22 -0.00    +0.000 C 
DOCKED: ENDROOT
DOCKED: BRANCH   1   2
DOCKED: ATOM      2  C   UNL     1      35.381  18.376 121.522 -0.24 -0.00    +0.000 A 
DOCKED: ATOM      3  C   UNL     1      35.978  18.920 120.374 -0.16 -0.00    +0.000 A 
DOCKED: ATOM      4  C   UNL     1      35.205  19.237 119.255 -0.16 -0.00    +0.000 A 
DOCKED: ATOM      5  C   UNL     1      33.818  19.029 119.274 -0.24 -0.00    +0.000 A 
DOCKED: ATOM      6  C   UNL     1      33.033  19.346 118.155 -0.19 -0.00    +0.000 A 
DOCKED: ATOM      7  C   UNL     1      31.645  19.140 118.181 -0.23 -0.00    +0.000 A 
DOCKED: ATOM      8  C   UNL     1      31.045  18.610 119.334 -0.43 -0.00    +0.000 A 
DOCKED: ATOM      9  C   UNL     1      31.819  18.292 120.452 -0.40 -0.00    +0.000 A 
DOCKED: ATOM     10  C   UNL     1      33.206  18.497 120.433 -0.32 -0.00    +0.000 A 
DOCKED: ATOM     11  C   UNL     1      33.991  18.180 121.552 -0.25 -0.00    +0.000 A 
DOCKED: ATOM     12  CM  UNL     1      34.597  18.706 120.402 +0.00 -0.00    +0.000 AC
DOCKED: ATOM     13  CM  UNL     1      32.427  18.819 119.305 +0.00 -0.00    +0.000 AC
DOCKED: BRANCH   7  12
DOCKED: ATOM     14  C   UNL     1      30.797  19.460 116.977 -0.12 -0.00    +0.000 C 
DOCKED: BRANCH  12  13
DOCKED: ATOM     15  N   UNL     1      30.035  20.706 117.209 -0.10 -0.00    +0.000 N 
DOCKED: ATOM     16  H   UNL     1      29.979  21.212 116.326 +0.00 -0.00    +0.000 HD
DOCKED: BRANCH  13  15
DOCKED: ATOM     17  C   UNL     1      30.746  21.610 118.145 -0.20 -0.00    +0.000 C 
DOCKED: ATOM     18  C   UNL     1      31.265  22.863 117.443 -0.11 -0.00    +0.000 C 
DOCKED: ENDBRANCH  13  15
DOCKED: BRANCH  13  17
DOCKED: ATOM     19  C   UNL     1      28.623  20.435 117.581 -0.16 -0.00    +0.000 C 
DOCKED: ATOM     20  C   UNL     1      28.264  20.828 119.021 -0.28 -0.00    +0.000 C 
DOCKED: ENDBRANCH  13  17
DOCKED: ENDBRANCH  12  13
DOCKED: ENDBRANCH   7  12
DOCKED: ENDBRANCH   1   2
DOCKED: BRANCH   1  19
DOCKED: ATOM     21  O   UNL     1      35.462  17.250 123.622 -0.33 -0.00    +0.000 OA
DOCKED: BRANCH  19  21
DOCKED: ATOM     22  O   UNL     1      35.021  15.190 124.564 -0.62 -0.00    +0.000 OA
DOCKED: ATOM     23  C   UNL     1      35.609  15.862 123.671 -0.46 -0.00    +0.000 C 
DOCKED: ATOM     24  N   UNL     1      36.470  15.219 122.723 -0.35 -0.00    +0.000 N 
DOCKED: ATOM     25  H   UNL     1      37.030  15.790 122.148 -0.00 -0.00    +0.000 HD
DOCKED: BRANCH  22  24
DOCKED: ATOM     26  C   UNL     1      36.571  13.794 122.553 -0.38 -0.00    +0.000 A 
DOCKED: ATOM     27  C   UNL     1      36.212  12.949 123.612 -0.56 -0.00    +0.000 A 
DOCKED: ATOM     28  C   UNL     1      36.321  11.562 123.482 -0.63 -0.00    +0.000 A 
DOCKED: ATOM     29  C   UNL     1      36.801  10.991 122.290 -0.55 -0.00    +0.000 A 
DOCKED: ATOM     30  C   UNL     1      37.195  11.842 121.242 -0.46 -0.00    +0.000 A 
DOCKED: ATOM     31  C   UNL     1      37.085  13.230 121.373 -0.41 -0.00    +0.000 A 
DOCKED: ATOM     32  CM  UNL     1      36.697  12.395 122.426 +0.00 -0.00    +0.000 AC
DOCKED: BRANCH  27  30
DOCKED: ATOM     33  C   UNL     1      36.915   9.517 122.168 -0.65 -0.00    +0.000 C 
DOCKED: ATOM     34  N   UNL     1      37.061   8.681 123.322 -0.66 -0.00    +0.000 N 
DOCKED: ATOM     35  O   UNL     1      36.899   8.986 121.024 -2.67 -0.00    +0.000 OA
DOCKED: ATOM     36  H   UNL     1      37.161   9.088 124.213 -0.58 -0.00    +0.000 HD
DOCKED: BRANCH  31  34
DOCKED: ATOM     37  O   UNL     1      37.062   7.332 123.193 -2.13 -0.00    +0.000 OA
DOCKED: ATOM     38  H   UNL     1      37.189   7.097 122.260 -0.14 -0.00    +0.000 HD
DOCKED: ENDBRANCH  31  34
DOCKED: ENDBRANCH  27  30
DOCKED: ENDBRANCH  22  24
DOCKED: ENDBRANCH  19  21
DOCKED: ENDBRANCH   1  19
DOCKED: TORSDOF 10DOCKED: TER
DOCKED: ENDMDL
________________________________________________________________________________


	BEGINNING GENETIC ALGORITHM DOCKING 58 of 100
Run: 58 Seed: 507901620 1463730240 [ Run 58 of 100 GA/GALS ]
Beginning LAMARCKIAN GENETIC ALGORITHM (LGA), with a maximum of 2500000 energy evaluations.

Final-Value: -17.333


	FINAL GENETIC ALGORITHM DOCKED STATE
	_______________________________________________


Detailed state:  trans 36.647 16.912 123.047 quatxyzw -0.662670 -0.318102 -0.553791 -0.391145 center 1.858 0.218 -0.021 ntor 10 -49.9576 119.4942 11.4695 149.1769 -179.9007 -14.8006 -104.5011 75.4367 -136.6553 -174.9010
State:	 36.647  16.912 123.047  -0.720 -0.346 -0.602 -133.948    -49.96  119.49   11.47  149.18 -179.90  -14.80 -104.50   75.44 -136.66 -174.90

DOCKED: MODEL       58
DOCKED: USER    Run = 58
DOCKED: USER    DPF = ligand_dock.biased.dpf
DOCKED: USER  
DOCKED: USER    Estimated Free Energy of Binding    =  -11.92 kcal/mol  [=(1)+(2)+(3)-(4)]
DOCKED: USER    Estimated Inhibition Constant, Ki   =    1.83 nM (nanomolar)  [Temperature = 298.15 K]
DOCKED: USER    
DOCKED: USER    (1) Final Intermolecular Energy     =  -14.90 kcal/mol
DOCKED: USER        vdW + Hbond + desolv Energy     =  -14.90 kcal/mol
DOCKED: USER        Electrostatic Energy            =   +0.00 kcal/mol
DOCKED: USER    (2) Final Total Internal Energy     =   -2.43 kcal/mol
DOCKED: USER    (3) Torsional Free Energy           =   +2.98 kcal/mol
DOCKED: USER    (4) Unbound System's Energy  [=(2)] =   -2.43 kcal/mol
DOCKED: USER    
DOCKED: USER    
DOCKED: USER    NEWDPF move ligand.dum.pdbqt
DOCKED: USER    NEWDPF about 1.858000 0.218000 -0.021000
DOCKED: USER    NEWDPF tran0 36.647330 16.912252 123.047340
DOCKED: USER    NEWDPF quaternion0 -0.662670 -0.318102 -0.553791 -0.391145
DOCKED: USER    NEWDPF axisangle0 -0.720036 -0.345639 -0.601732 -133.948485
DOCKED: USER    NEWDPF quat0 -0.720036 -0.345639 -0.601732 -133.948485
DOCKED: USER    NEWDPF dihe0 -49.96 119.49 11.47 149.18 -179.90 -14.80 -104.50 75.44 -136.66 -174.90 
DOCKED: USER  keepresnum = 1 
DOCKED: USER  
DOCKED: REMARK  Name = 
DOCKED: REMARK  12 active torsions:
DOCKED: REMARK  status: ('A' for Active; 'I' for Inactive)
DOCKED: REMARK    1  A    between atoms: C_2  and  O_3
DOCKED: REMARK    2  A    between atoms: O_3  and  C_4
DOCKED: REMARK    3  A    between atoms: C_4  and  C_5
DOCKED: REMARK    4  A    between atoms: C_10  and  C_11
DOCKED: REMARK    5  A    between atoms: C_11  and  N_12
DOCKED: REMARK    6  A    between atoms: N_12  and  C_13
DOCKED: REMARK    7  A    between atoms: N_12  and  C_15
DOCKED: REMARK    8  A    between atoms: C_13  and  C_14
DOCKED: REMARK    9  A    between atoms: C_15  and  C_16
DOCKED: REMARK   10  A    between atoms: N_21  and  C_22
DOCKED: REMARK   11  A    between atoms: C_25  and  C_26
DOCKED: REMARK   12  A    between atoms: N_27  and  O_28
DOCKED: REMARK                            x       y       z     vdW  Elec       q    Type
DOCKED: REMARK                         _______ _______ _______ _____ _____    ______ ____
DOCKED: USER                              x       y       z     vdW  Elec       q    Type
DOCKED: USER                           _______ _______ _______ _____ _____    ______ ____
DOCKED: ROOT
DOCKED: ATOM      1  C   UNL     1      36.784  18.544 122.881 -0.17 -0.00    +0.000 C 
DOCKED: ENDROOT
DOCKED: BRANCH   1   2
DOCKED: ATOM      2  C   UNL     1      36.180  18.158 121.562 -0.18 -0.00    +0.000 A 
DOCKED: ATOM      3  C   UNL     1      36.967  17.535 120.581 -0.12 -0.00    +0.000 A 
DOCKED: ATOM      4  C   UNL     1      36.420  17.206 119.338 -0.13 -0.00    +0.000 A 
DOCKED: ATOM      5  C   UNL     1      35.081  17.509 119.054 -0.13 -0.00    +0.000 A 
DOCKED: ATOM      6  C   UNL     1      34.524  17.183 117.808 -0.13 -0.00    +0.000 A 
DOCKED: ATOM      7  C   UNL     1      33.183  17.493 117.527 -0.15 -0.00    +0.000 A 
DOCKED: ATOM      8  C   UNL     1      32.400  18.129 118.504 -0.23 -0.00    +0.000 A 
DOCKED: ATOM      9  C   UNL     1      32.948  18.458 119.746 -0.34 -0.00    +0.000 A 
DOCKED: ATOM     10  C   UNL     1      34.285  18.152 120.032 -0.24 -0.00    +0.000 A 
DOCKED: ATOM     11  C   UNL     1      34.843  18.478 121.278 -0.26 -0.00    +0.000 A 
DOCKED: ATOM     12  CM  UNL     1      35.630  17.840 120.308 +0.00 -0.00    +0.000 AC
DOCKED: ATOM     13  CM  UNL     1      33.737  17.821 118.779 +0.00 -0.00    +0.000 AC
DOCKED: BRANCH   7  12
DOCKED: ATOM     14  C   UNL     1      32.573  17.130 116.199 -0.14 -0.00    +0.000 C 
DOCKED: BRANCH  12  13
DOCKED: ATOM     15  N   UNL     1      31.840  15.851 116.309 -0.21 -0.00    +0.000 N 
DOCKED: ATOM     16  H   UNL     1      31.502  15.599 115.381 -0.00 -0.00    +0.000 HD
DOCKED: BRANCH  13  15
DOCKED: ATOM     17  C   UNL     1      30.629  15.991 117.152 -0.24 -0.00    +0.000 C 
DOCKED: ATOM     18  C   UNL     1      29.348  15.741 116.356 -0.34 -0.00    +0.000 C 
DOCKED: ENDBRANCH  13  15
DOCKED: BRANCH  13  17
DOCKED: ATOM     19  C   UNL     1      32.729  14.731 116.706 -0.29 -0.00    +0.000 C 
DOCKED: ATOM     20  C   UNL     1      32.054  13.352 116.689 -0.52 -0.00    +0.000 C 
DOCKED: ENDBRANCH  13  17
DOCKED: ENDBRANCH  12  13
DOCKED: ENDBRANCH   7  12
DOCKED: ENDBRANCH   1   2
DOCKED: BRANCH   1  19
DOCKED: ATOM     21  O   UNL     1      36.753  17.421 123.757 -0.26 -0.00    +0.000 OA
DOCKED: BRANCH  19  21
DOCKED: ATOM     22  O   UNL     1      38.300  15.823 123.145 -0.35 -0.00    +0.000 OA
DOCKED: ATOM     23  C   UNL     1      37.092  16.131 123.342 -0.33 -0.00    +0.000 C 
DOCKED: ATOM     24  N   UNL     1      36.048  15.179 123.102 -0.40 -0.00    +0.000 N 
DOCKED: ATOM     25  H   UNL     1      35.118  15.503 123.114 -0.02 -0.00    +0.000 HD
DOCKED: BRANCH  22  24
DOCKED: ATOM     26  C   UNL     1      36.266  13.781 122.846 -0.38 -0.00    +0.000 A 
DOCKED: ATOM     27  C   UNL     1      35.938  12.841 123.832 -0.53 -0.00    +0.000 A 
DOCKED: ATOM     28  C   UNL     1      36.160  11.479 123.617 -0.61 -0.00    +0.000 A 
DOCKED: ATOM     29  C   UNL     1      36.725  11.028 122.412 -0.57 -0.00    +0.000 A 
DOCKED: ATOM     30  C   UNL     1      37.088  11.974 121.437 -0.49 -0.00    +0.000 A 
DOCKED: ATOM     31  C   UNL     1      36.864  13.338 121.653 -0.34 -0.00    +0.000 A 
DOCKED: ATOM     32  CM  UNL     1      36.507  12.407 122.633 +0.00 -0.00    +0.000 AC
DOCKED: BRANCH  27  30
DOCKED: ATOM     33  C   UNL     1      36.960   9.578 122.199 -0.63 -0.00    +0.000 C 
DOCKED: ATOM     34  N   UNL     1      37.086   8.672 123.302 -0.66 -0.00    +0.000 N 
DOCKED: ATOM     35  O   UNL     1      37.065   9.132 121.025 -2.73 -0.00    +0.000 OA
DOCKED: ATOM     36  H   UNL     1      37.091   9.019 124.223 -0.56 -0.00    +0.000 HD
DOCKED: BRANCH  31  34
DOCKED: ATOM     37  O   UNL     1      37.198   7.340 123.082 -2.08 -0.00    +0.000 OA
DOCKED: ATOM     38  H   UNL     1      37.357   7.180 122.139 -0.16 -0.00    +0.000 HD
DOCKED: ENDBRANCH  31  34
DOCKED: ENDBRANCH  27  30
DOCKED: ENDBRANCH  22  24
DOCKED: ENDBRANCH  19  21
DOCKED: ENDBRANCH   1  19
DOCKED: TORSDOF 10DOCKED: TER
DOCKED: ENDMDL
________________________________________________________________________________


	BEGINNING GENETIC ALGORITHM DOCKING 59 of 100
Run: 59 Seed: 638120020 804780127 [ Run 59 of 100 GA/GALS ]
Beginning LAMARCKIAN GENETIC ALGORITHM (LGA), with a maximum of 2500000 energy evaluations.

Final-Value: -16.682


	FINAL GENETIC ALGORITHM DOCKED STATE
	_______________________________________________


Detailed state:  trans 36.856 17.262 123.642 quatxyzw -0.085569 0.796194 0.598644 0.019423 center 1.858 0.218 -0.021 ntor 10 -175.9772 -16.8394 -1.2182 -11.0725 178.9254 -163.6279 -11.3556 -41.8141 114.7641 177.3730
State:	 36.856  17.262 123.642  -0.086  0.796  0.599 177.774   -175.98  -16.84   -1.22  -11.07  178.93 -163.63  -11.36  -41.81  114.76  177.37

DOCKED: MODEL       59
DOCKED: USER    Run = 59
DOCKED: USER    DPF = ligand_dock.biased.dpf
DOCKED: USER  
DOCKED: USER    Estimated Free Energy of Binding    =  -11.41 kcal/mol  [=(1)+(2)+(3)-(4)]
DOCKED: USER    Estimated Inhibition Constant, Ki   =    4.30 nM (nanomolar)  [Temperature = 298.15 K]
DOCKED: USER    
DOCKED: USER    (1) Final Intermolecular Energy     =  -14.40 kcal/mol
DOCKED: USER        vdW + Hbond + desolv Energy     =  -14.40 kcal/mol
DOCKED: USER        Electrostatic Energy            =   +0.00 kcal/mol
DOCKED: USER    (2) Final Total Internal Energy     =   -2.28 kcal/mol
DOCKED: USER    (3) Torsional Free Energy           =   +2.98 kcal/mol
DOCKED: USER    (4) Unbound System's Energy  [=(2)] =   -2.28 kcal/mol
DOCKED: USER    
DOCKED: USER    
DOCKED: USER    NEWDPF move ligand.dum.pdbqt
DOCKED: USER    NEWDPF about 1.858000 0.218000 -0.021000
DOCKED: USER    NEWDPF tran0 36.855691 17.261726 123.641943
DOCKED: USER    NEWDPF quaternion0 -0.085569 0.796194 0.598644 0.019423
DOCKED: USER    NEWDPF axisangle0 -0.085585 0.796345 0.598757 177.774193
DOCKED: USER    NEWDPF quat0 -0.085585 0.796345 0.598757 177.774193
DOCKED: USER    NEWDPF dihe0 -175.98 -16.84 -1.22 -11.07 178.93 -163.63 -11.36 -41.81 114.76 177.37 
DOCKED: USER  keepresnum = 1 
DOCKED: USER  
DOCKED: REMARK  Name = 
DOCKED: REMARK  12 active torsions:
DOCKED: REMARK  status: ('A' for Active; 'I' for Inactive)
DOCKED: REMARK    1  A    between atoms: C_2  and  O_3
DOCKED: REMARK    2  A    between atoms: O_3  and  C_4
DOCKED: REMARK    3  A    between atoms: C_4  and  C_5
DOCKED: REMARK    4  A    between atoms: C_10  and  C_11
DOCKED: REMARK    5  A    between atoms: C_11  and  N_12
DOCKED: REMARK    6  A    between atoms: N_12  and  C_13
DOCKED: REMARK    7  A    between atoms: N_12  and  C_15
DOCKED: REMARK    8  A    between atoms: C_13  and  C_14
DOCKED: REMARK    9  A    between atoms: C_15  and  C_16
DOCKED: REMARK   10  A    between atoms: N_21  and  C_22
DOCKED: REMARK   11  A    between atoms: C_25  and  C_26
DOCKED: REMARK   12  A    between atoms: N_27  and  O_28
DOCKED: REMARK                            x       y       z     vdW  Elec       q    Type
DOCKED: REMARK                         _______ _______ _______ _____ _____    ______ ____
DOCKED: USER                              x       y       z     vdW  Elec       q    Type
DOCKED: USER                           _______ _______ _______ _____ _____    ______ ____
DOCKED: ROOT
DOCKED: ATOM      1  C   UNL     1      36.885  18.535 122.600 -0.16 -0.00    +0.000 C 
DOCKED: ENDROOT
DOCKED: BRANCH   1   2
DOCKED: ATOM      2  C   UNL     1      38.348  18.234 122.745 -0.11 -0.00    +0.000 A 
DOCKED: ATOM      3  C   UNL     1      39.065  18.733 123.843 -0.13 -0.00    +0.000 A 
DOCKED: ATOM      4  C   UNL     1      40.435  18.486 123.966 -0.20 -0.00    +0.000 A 
DOCKED: ATOM      5  C   UNL     1      41.109  17.748 122.982 -0.22 -0.00    +0.000 A 
DOCKED: ATOM      6  C   UNL     1      42.486  17.497 123.097 -0.30 -0.00    +0.000 A 
DOCKED: ATOM      7  C   UNL     1      43.157  16.761 122.107 -0.31 -0.00    +0.000 A 
DOCKED: ATOM      8  C   UNL     1      42.442  16.274 121.001 -0.23 -0.00    +0.000 A 
DOCKED: ATOM      9  C   UNL     1      41.072  16.521 120.880 -0.17 -0.00    +0.000 A 
DOCKED: ATOM     10  C   UNL     1      40.396  17.255 121.864 -0.14 -0.00    +0.000 A 
DOCKED: ATOM     11  C   UNL     1      39.021  17.508 121.750 -0.10 -0.00    +0.000 A 
DOCKED: ATOM     12  CM  UNL     1      39.729  17.994 122.858 +0.00 -0.00    +0.000 AC
DOCKED: ATOM     13  CM  UNL     1      41.777  17.009 121.988 +0.00 -0.00    +0.000 AC
DOCKED: BRANCH   7  12
DOCKED: ATOM     14  C   UNL     1      44.629  16.470 122.231 -0.11 -0.00    +0.000 C 
DOCKED: BRANCH  12  13
DOCKED: ATOM     15  N   UNL     1      45.376  17.723 122.473 -0.27 -0.00    +0.000 N 
DOCKED: ATOM     16  H   UNL     1      44.736  18.398 122.890 -0.06 -0.00    +0.000 HD
DOCKED: BRANCH  13  15
DOCKED: ATOM     17  C   UNL     1      45.832  18.336 121.203 -0.11 -0.00    +0.000 C 
DOCKED: ATOM     18  C   UNL     1      45.623  17.402 120.012 -0.11 -0.00    +0.000 C 
DOCKED: ENDBRANCH  13  15
DOCKED: BRANCH  13  17
DOCKED: ATOM     19  C   UNL     1      46.451  17.546 123.482 -0.37 -0.00    +0.000 C 
DOCKED: ATOM     20  C   UNL     1      47.370  16.344 123.221 -0.44 +0.00    +0.000 C 
DOCKED: ENDBRANCH  13  17
DOCKED: ENDBRANCH  12  13
DOCKED: ENDBRANCH   7  12
DOCKED: ENDBRANCH   1   2
DOCKED: BRANCH   1  19
DOCKED: ATOM     21  O   UNL     1      36.129  17.489 123.202 -0.25 -0.00    +0.000 OA
DOCKED: BRANCH  19  21
DOCKED: ATOM     22  O   UNL     1      36.057  15.965 121.471 -0.23 -0.00    +0.000 OA
DOCKED: ATOM     23  C   UNL     1      36.129  16.180 122.713 -0.33 -0.00    +0.000 C 
DOCKED: ATOM     24  N   UNL     1      36.169  15.089 123.642 -0.45 -0.00    +0.000 N 
DOCKED: ATOM     25  H   UNL     1      36.065  15.296 124.599 -0.04 -0.00    +0.000 HD
DOCKED: BRANCH  22  24
DOCKED: ATOM     26  C   UNL     1      36.350  13.712 123.269 -0.50 -0.00    +0.000 A 
DOCKED: ATOM     27  C   UNL     1      35.942  12.702 124.151 -0.36 -0.00    +0.000 A 
DOCKED: ATOM     28  C   UNL     1      36.126  11.356 123.824 -0.55 -0.00    +0.000 A 
DOCKED: ATOM     29  C   UNL     1      36.732  10.992 122.609 -0.58 -0.00    +0.000 A 
DOCKED: ATOM     30  C   UNL     1      37.174  12.007 121.741 -0.47 -0.00    +0.000 A 
DOCKED: ATOM     31  C   UNL     1      36.988  13.353 122.069 -0.43 -0.00    +0.000 A 
DOCKED: ATOM     32  CM  UNL     1      36.552  12.353 122.944 +0.00 -0.00    +0.000 AC
DOCKED: BRANCH  27  30
DOCKED: ATOM     33  C   UNL     1      36.925   9.559 122.277 -0.65 -0.00    +0.000 C 
DOCKED: ATOM     34  N   UNL     1      36.991   8.558 123.299 -0.68 -0.00    +0.000 N 
DOCKED: ATOM     35  O   UNL     1      37.049   9.212 121.071 -2.73 -0.00    +0.000 OA
DOCKED: ATOM     36  H   UNL     1      36.981   8.823 124.247 -0.51 -0.00    +0.000 HD
DOCKED: BRANCH  31  34
DOCKED: ATOM     37  O   UNL     1      37.065   7.246 122.967 -2.01 -0.00    +0.000 OA
DOCKED: ATOM     38  H   UNL     1      37.045   7.155 122.002 -0.10 -0.00    +0.000 HD
DOCKED: ENDBRANCH  31  34
DOCKED: ENDBRANCH  27  30
DOCKED: ENDBRANCH  22  24
DOCKED: ENDBRANCH  19  21
DOCKED: ENDBRANCH   1  19
DOCKED: TORSDOF 10DOCKED: TER
DOCKED: ENDMDL
________________________________________________________________________________


	BEGINNING GENETIC ALGORITHM DOCKING 60 of 100
Run: 60 Seed: 845944136 1102125208 [ Run 60 of 100 GA/GALS ]
Beginning LAMARCKIAN GENETIC ALGORITHM (LGA), with a maximum of 2500000 energy evaluations.

Final-Value: -16.580


	FINAL GENETIC ALGORITHM DOCKED STATE
	_______________________________________________


Detailed state:  trans 34.411 17.491 123.625 quatxyzw -0.428837 0.554457 0.156144 -0.695913 center 1.858 0.218 -0.021 ntor 10 -180.0000 36.5366 12.5288 -8.8137 -177.9960 51.0507 91.1000 106.0389 108.2911 -127.5140
State:	 34.411  17.491 123.625  -0.597  0.772  0.217 -91.800   -180.00   36.54   12.53   -8.81 -178.00   51.05   91.10  106.04  108.29 -127.51

DOCKED: MODEL       60
DOCKED: USER    Run = 60
DOCKED: USER    DPF = ligand_dock.biased.dpf
DOCKED: USER  
DOCKED: USER    Estimated Free Energy of Binding    =  -11.54 kcal/mol  [=(1)+(2)+(3)-(4)]
DOCKED: USER    Estimated Inhibition Constant, Ki   =    3.50 nM (nanomolar)  [Temperature = 298.15 K]
DOCKED: USER    
DOCKED: USER    (1) Final Intermolecular Energy     =  -14.52 kcal/mol
DOCKED: USER        vdW + Hbond + desolv Energy     =  -14.52 kcal/mol
DOCKED: USER        Electrostatic Energy            =   +0.00 kcal/mol
DOCKED: USER    (2) Final Total Internal Energy     =   -2.06 kcal/mol
DOCKED: USER    (3) Torsional Free Energy           =   +2.98 kcal/mol
DOCKED: USER    (4) Unbound System's Energy  [=(2)] =   -2.06 kcal/mol
DOCKED: USER    
DOCKED: USER    
DOCKED: USER    NEWDPF move ligand.dum.pdbqt
DOCKED: USER    NEWDPF about 1.858000 0.218000 -0.021000
DOCKED: USER    NEWDPF tran0 34.410806 17.490881 123.624506
DOCKED: USER    NEWDPF quaternion0 -0.428837 0.554457 0.156144 -0.695913
DOCKED: USER    NEWDPF axisangle0 -0.597162 0.772089 0.217433 -91.799937
DOCKED: USER    NEWDPF quat0 -0.597162 0.772089 0.217433 -91.799937
DOCKED: USER    NEWDPF dihe0 -180.00 36.54 12.53 -8.81 -178.00 51.05 91.10 106.04 108.29 -127.51 
DOCKED: USER  keepresnum = 1 
DOCKED: USER  
DOCKED: REMARK  Name = 
DOCKED: REMARK  12 active torsions:
DOCKED: REMARK  status: ('A' for Active; 'I' for Inactive)
DOCKED: REMARK    1  A    between atoms: C_2  and  O_3
DOCKED: REMARK    2  A    between atoms: O_3  and  C_4
DOCKED: REMARK    3  A    between atoms: C_4  and  C_5
DOCKED: REMARK    4  A    between atoms: C_10  and  C_11
DOCKED: REMARK    5  A    between atoms: C_11  and  N_12
DOCKED: REMARK    6  A    between atoms: N_12  and  C_13
DOCKED: REMARK    7  A    between atoms: N_12  and  C_15
DOCKED: REMARK    8  A    between atoms: C_13  and  C_14
DOCKED: REMARK    9  A    between atoms: C_15  and  C_16
DOCKED: REMARK   10  A    between atoms: N_21  and  C_22
DOCKED: REMARK   11  A    between atoms: C_25  and  C_26
DOCKED: REMARK   12  A    between atoms: N_27  and  O_28
DOCKED: REMARK                            x       y       z     vdW  Elec       q    Type
DOCKED: REMARK                         _______ _______ _______ _____ _____    ______ ____
DOCKED: USER                              x       y       z     vdW  Elec       q    Type
DOCKED: USER                           _______ _______ _______ _____ _____    ______ ____
DOCKED: ROOT
DOCKED: ATOM      1  C   UNL     1      35.771  18.303 124.072 -0.27 -0.00    +0.000 C 
DOCKED: ENDROOT
DOCKED: BRANCH   1   2
DOCKED: ATOM      2  C   UNL     1      35.040  18.200 125.378 -0.27 -0.00    +0.000 A 
DOCKED: ATOM      3  C   UNL     1      33.640  18.110 125.399 -0.32 -0.00    +0.000 A 
DOCKED: ATOM      4  C   UNL     1      32.951  18.050 126.614 -0.20 -0.00    +0.000 A 
DOCKED: ATOM      5  C   UNL     1      33.655  18.095 127.826 -0.22 -0.00    +0.000 A 
DOCKED: ATOM      6  C   UNL     1      32.971  18.038 129.051 -0.18 -0.00    +0.000 A 
DOCKED: ATOM      7  C   UNL     1      33.681  18.088 130.262 -0.11 -0.00    +0.000 A 
DOCKED: ATOM      8  C   UNL     1      35.080  18.193 130.241 -0.10 -0.00    +0.000 A 
DOCKED: ATOM      9  C   UNL     1      35.768  18.252 129.026 -0.10 -0.00    +0.000 A 
DOCKED: ATOM     10  C   UNL     1      35.066  18.203 127.814 -0.10 -0.00    +0.000 A 
DOCKED: ATOM     11  C   UNL     1      35.748  18.262 126.589 -0.03 -0.00    +0.000 A 
DOCKED: ATOM     12  CM  UNL     1      34.350  18.153 126.603 -0.07 -0.00    +0.000 AC
DOCKED: ATOM     13  CM  UNL     1      34.370  18.145 129.037 +0.00 -0.00    +0.000 AC
DOCKED: BRANCH   7  12
DOCKED: ATOM     14  C   UNL     1      32.957  18.008 131.580 -0.16 -0.00    +0.000 C 
DOCKED: BRANCH  12  13
DOCKED: ATOM     15  N   UNL     1      33.904  17.659 132.660 -0.12 -0.00    +0.000 N 
DOCKED: ATOM     16  H   UNL     1      34.832  17.976 132.382 +0.00 -0.00    +0.000 HD
DOCKED: BRANCH  13  15
DOCKED: ATOM     17  C   UNL     1      34.017  16.191 132.828 -0.25 -0.00    +0.000 C 
DOCKED: ATOM     18  C   UNL     1      32.900  15.446 132.098 -0.29 -0.00    +0.000 C 
DOCKED: ENDBRANCH  13  15
DOCKED: BRANCH  13  17
DOCKED: ATOM     19  C   UNL     1      33.613  18.393 133.917 -0.10 -0.00    +0.000 C 
DOCKED: ATOM     20  C   UNL     1      32.913  17.551 134.993 -0.13 -0.00    +0.000 C 
DOCKED: ENDBRANCH  13  17
DOCKED: ENDBRANCH  12  13
DOCKED: ENDBRANCH   7  12
DOCKED: ENDBRANCH   1   2
DOCKED: BRANCH   1  19
DOCKED: ATOM     21  O   UNL     1      35.121  17.482 123.106 -0.34 -0.00    +0.000 OA
DOCKED: BRANCH  19  21
DOCKED: ATOM     22  O   UNL     1      34.177  15.419 123.527 -0.62 -0.00    +0.000 OA
DOCKED: ATOM     23  C   UNL     1      35.177  16.086 123.142 -0.42 -0.00    +0.000 C 
DOCKED: ATOM     24  N   UNL     1      36.398  15.428 122.778 -0.34 -0.00    +0.000 N 
DOCKED: ATOM     25  H   UNL     1      37.197  15.986 122.638 -0.00 -0.00    +0.000 HD
DOCKED: BRANCH  22  24
DOCKED: ATOM     26  C   UNL     1      36.533  14.007 122.604 -0.36 -0.00    +0.000 A 
DOCKED: ATOM     27  C   UNL     1      36.186  13.150 123.657 -0.54 -0.00    +0.000 A 
DOCKED: ATOM     28  C   UNL     1      36.328  11.766 123.522 -0.63 -0.00    +0.000 A 
DOCKED: ATOM     29  C   UNL     1      36.830  11.211 122.332 -0.55 -0.00    +0.000 A 
DOCKED: ATOM     30  C   UNL     1      37.211  12.074 121.290 -0.47 -0.00    +0.000 A 
DOCKED: ATOM     31  C   UNL     1      37.068  13.459 121.425 -0.38 -0.00    +0.000 A 
DOCKED: ATOM     32  CM  UNL     1      36.693  12.611 122.472 +0.00 -0.00    +0.000 AC
DOCKED: BRANCH  27  30
DOCKED: ATOM     33  C   UNL     1      36.980   9.741 122.205 -0.61 -0.00    +0.000 C 
DOCKED: ATOM     34  N   UNL     1      37.051   8.894 123.359 -0.62 -0.00    +0.000 N 
DOCKED: ATOM     35  O   UNL     1      37.060   9.221 121.059 -2.73 -0.00    +0.000 OA
DOCKED: ATOM     36  H   UNL     1      37.075   9.293 124.259 -0.55 -0.00    +0.000 HD
DOCKED: BRANCH  31  34
DOCKED: ATOM     37  O   UNL     1      37.086   7.547 123.218 -2.24 -0.00    +0.000 OA
DOCKED: ATOM     38  H   UNL     1      37.254   7.324 122.289 -0.11 -0.00    +0.000 HD
DOCKED: ENDBRANCH  31  34
DOCKED: ENDBRANCH  27  30
DOCKED: ENDBRANCH  22  24
DOCKED: ENDBRANCH  19  21
DOCKED: ENDBRANCH   1  19
DOCKED: TORSDOF 10DOCKED: TER
DOCKED: ENDMDL
________________________________________________________________________________


	BEGINNING GENETIC ALGORITHM DOCKING 61 of 100
Run: 61 Seed: 2021940704 590179387 [ Run 61 of 100 GA/GALS ]
Beginning LAMARCKIAN GENETIC ALGORITHM (LGA), with a maximum of 2500000 energy evaluations.

Final-Value: -18.180


	FINAL GENETIC ALGORITHM DOCKED STATE
	_______________________________________________


Detailed state:  trans 37.210 16.989 123.432 quatxyzw 0.942934 0.000375 -0.294523 0.155345 center 1.858 0.218 -0.021 ntor 10 -14.4662 -179.9298 24.5022 113.1312 180.0000 130.0556 -156.4100 -149.7679 -104.4723 -163.8537
State:	 37.210  16.989 123.432   0.955  0.000 -0.298 162.126    -14.47 -179.93   24.50  113.13  180.00  130.06 -156.41 -149.77 -104.47 -163.85

DOCKED: MODEL       61
DOCKED: USER    Run = 61
DOCKED: USER    DPF = ligand_dock.biased.dpf
DOCKED: USER  
DOCKED: USER    Estimated Free Energy of Binding    =  -13.05 kcal/mol  [=(1)+(2)+(3)-(4)]
DOCKED: USER    Estimated Inhibition Constant, Ki   =  273.07 pM (picomolar)  [Temperature = 298.15 K]
DOCKED: USER    
DOCKED: USER    (1) Final Intermolecular Energy     =  -16.03 kcal/mol
DOCKED: USER        vdW + Hbond + desolv Energy     =  -16.03 kcal/mol
DOCKED: USER        Electrostatic Energy            =   +0.00 kcal/mol
DOCKED: USER    (2) Final Total Internal Energy     =   -2.15 kcal/mol
DOCKED: USER    (3) Torsional Free Energy           =   +2.98 kcal/mol
DOCKED: USER    (4) Unbound System's Energy  [=(2)] =   -2.15 kcal/mol
DOCKED: USER    
DOCKED: USER    
DOCKED: USER    NEWDPF move ligand.dum.pdbqt
DOCKED: USER    NEWDPF about 1.858000 0.218000 -0.021000
DOCKED: USER    NEWDPF tran0 37.210177 16.988980 123.431966
DOCKED: USER    NEWDPF quaternion0 0.942934 0.000375 -0.294523 0.155345
DOCKED: USER    NEWDPF axisangle0 0.954521 0.000379 -0.298142 162.126420
DOCKED: USER    NEWDPF quat0 0.954521 0.000379 -0.298142 162.126420
DOCKED: USER    NEWDPF dihe0 -14.47 -179.93 24.50 113.13 180.00 130.06 -156.41 -149.77 -104.47 -163.85 
DOCKED: USER  keepresnum = 1 
DOCKED: USER  
DOCKED: REMARK  Name = 
DOCKED: REMARK  12 active torsions:
DOCKED: REMARK  status: ('A' for Active; 'I' for Inactive)
DOCKED: REMARK    1  A    between atoms: C_2  and  O_3
DOCKED: REMARK    2  A    between atoms: O_3  and  C_4
DOCKED: REMARK    3  A    between atoms: C_4  and  C_5
DOCKED: REMARK    4  A    between atoms: C_10  and  C_11
DOCKED: REMARK    5  A    between atoms: C_11  and  N_12
DOCKED: REMARK    6  A    between atoms: N_12  and  C_13
DOCKED: REMARK    7  A    between atoms: N_12  and  C_15
DOCKED: REMARK    8  A    between atoms: C_13  and  C_14
DOCKED: REMARK    9  A    between atoms: C_15  and  C_16
DOCKED: REMARK   10  A    between atoms: N_21  and  C_22
DOCKED: REMARK   11  A    between atoms: C_25  and  C_26
DOCKED: REMARK   12  A    between atoms: N_27  and  O_28
DOCKED: REMARK                            x       y       z     vdW  Elec       q    Type
DOCKED: REMARK                         _______ _______ _______ _____ _____    ______ ____
DOCKED: USER                              x       y       z     vdW  Elec       q    Type
DOCKED: USER                           _______ _______ _______ _____ _____    ______ ____
DOCKED: ROOT
DOCKED: ATOM      1  C   UNL     1      36.307  18.040 122.545 -0.21 -0.00    +0.000 C 
DOCKED: ENDROOT
DOCKED: BRANCH   1   2
DOCKED: ATOM      2  C   UNL     1      35.447  17.860 123.761 -0.28 -0.00    +0.000 A 
DOCKED: ATOM      3  C   UNL     1      34.903  16.601 124.062 -0.42 -0.00    +0.000 A 
DOCKED: ATOM      4  C   UNL     1      34.073  16.435 125.173 -0.43 -0.00    +0.000 A 
DOCKED: ATOM      5  C   UNL     1      33.764  17.530 125.992 -0.35 -0.00    +0.000 A 
DOCKED: ATOM      6  C   UNL     1      32.929  17.372 127.110 -0.29 -0.00    +0.000 A 
DOCKED: ATOM      7  C   UNL     1      32.618  18.473 127.924 -0.20 -0.00    +0.000 A 
DOCKED: ATOM      8  C   UNL     1      33.151  19.735 127.616 -0.14 -0.00    +0.000 A 
DOCKED: ATOM      9  C   UNL     1      33.981  19.901 126.504 -0.18 -0.00    +0.000 A 
DOCKED: ATOM     10  C   UNL     1      34.294  18.806 125.687 -0.27 -0.00    +0.000 A 
DOCKED: ATOM     11  C   UNL     1      35.127  18.962 124.569 -0.22 -0.00    +0.000 A 
DOCKED: ATOM     12  CM  UNL     1      34.602  17.699 124.874 -0.43 -0.00    +0.000 AC
DOCKED: ATOM     13  CM  UNL     1      33.456  18.636 126.805 -0.00 -0.00    +0.000 AC
DOCKED: BRANCH   7  12
DOCKED: ATOM     14  C   UNL     1      31.739  18.309 129.136 -0.25 -0.00    +0.000 C 
DOCKED: BRANCH  12  13
DOCKED: ATOM     15  N   UNL     1      30.518  19.130 128.994 -0.26 -0.00    +0.000 N 
DOCKED: ATOM     16  H   UNL     1      29.757  18.651 129.474 -0.00 -0.00    +0.000 HD
DOCKED: BRANCH  13  15
DOCKED: ATOM     17  C   UNL     1      30.096  19.232 127.576 -0.39 -0.00    +0.000 C 
DOCKED: ATOM     18  C   UNL     1      28.587  19.432 127.443 -0.55 -0.00    +0.000 C 
DOCKED: ENDBRANCH  13  15
DOCKED: BRANCH  13  17
DOCKED: ATOM     19  C   UNL     1      30.641  20.438 129.686 -0.16 -0.00    +0.000 C 
DOCKED: ATOM     20  C   UNL     1      29.706  20.603 130.893 -0.27 -0.00    +0.000 C 
DOCKED: ENDBRANCH  13  17
DOCKED: ENDBRANCH  12  13
DOCKED: ENDBRANCH   7  12
DOCKED: ENDBRANCH   1   2
DOCKED: BRANCH   1  19
DOCKED: ATOM     21  O   UNL     1      37.580  17.447 122.779 -0.18 -0.00    +0.000 OA
DOCKED: BRANCH  19  21
DOCKED: ATOM     22  O   UNL     1      38.695  15.545 123.460 -0.30 -0.00    +0.000 OA
DOCKED: ATOM     23  C   UNL     1      37.785  16.065 122.756 -0.30 -0.00    +0.000 C 
DOCKED: ATOM     24  N   UNL     1      36.979  15.255 121.890 -0.27 -0.00    +0.000 N 
DOCKED: ATOM     25  H   UNL     1      36.393  15.714 121.245 -0.01 -0.00    +0.000 HD
DOCKED: BRANCH  22  24
DOCKED: ATOM     26  C   UNL     1      36.968  13.817 121.902 -0.35 -0.00    +0.000 A 
DOCKED: ATOM     27  C   UNL     1      36.678  13.142 123.095 -0.54 -0.00    +0.000 A 
DOCKED: ATOM     28  C   UNL     1      36.681  11.745 123.139 -0.62 -0.00    +0.000 A 
DOCKED: ATOM     29  C   UNL     1      36.984  10.994 121.990 -0.49 -0.00    +0.000 A 
DOCKED: ATOM     30  C   UNL     1      37.310  11.673 120.802 -0.42 -0.00    +0.000 A 
DOCKED: ATOM     31  C   UNL     1      37.306  13.071 120.759 -0.42 -0.00    +0.000 A 
DOCKED: ATOM     32  CM  UNL     1      36.988  12.407 121.948 +0.00 -0.00    +0.000 AC
DOCKED: BRANCH  27  30
DOCKED: ATOM     33  C   UNL     1      36.988   9.512 122.053 -0.63 -0.00    +0.000 C 
DOCKED: ATOM     34  N   UNL     1      37.168   8.817 123.293 -0.62 -0.00    +0.000 N 
DOCKED: ATOM     35  O   UNL     1      36.846   8.845 120.992 -2.65 -0.00    +0.000 OA
DOCKED: ATOM     36  H   UNL     1      37.365   9.323 124.114 -0.58 -0.00    +0.000 HD
DOCKED: BRANCH  31  34
DOCKED: ATOM     37  O   UNL     1      37.067   7.467 123.340 -2.18 -0.00    +0.000 OA
DOCKED: ATOM     38  H   UNL     1      37.257   7.097 122.464 -0.16 -0.00    +0.000 HD
DOCKED: ENDBRANCH  31  34
DOCKED: ENDBRANCH  27  30
DOCKED: ENDBRANCH  22  24
DOCKED: ENDBRANCH  19  21
DOCKED: ENDBRANCH   1  19
DOCKED: TORSDOF 10DOCKED: TER
DOCKED: ENDMDL
________________________________________________________________________________


	BEGINNING GENETIC ALGORITHM DOCKING 62 of 100
Run: 62 Seed: 605427781 876801986 [ Run 62 of 100 GA/GALS ]
Beginning LAMARCKIAN GENETIC ALGORITHM (LGA), with a maximum of 2500000 energy evaluations.

Final-Value: -17.831


	FINAL GENETIC ALGORITHM DOCKED STATE
	_______________________________________________


Detailed state:  trans 37.492 16.918 123.947 quatxyzw 0.948716 -0.056690 -0.244069 0.192756 center 1.858 0.218 -0.021 ntor 10 179.8428 61.3910 63.6627 179.9983 -170.1349 -180.0000 -114.9831 148.7899 -88.0647 170.3680
State:	 37.492  16.918 123.947   0.967 -0.058 -0.249 157.773    179.84   61.39   63.66  180.00 -170.13 -180.00 -114.98  148.79  -88.06  170.37

DOCKED: MODEL       62
DOCKED: USER    Run = 62
DOCKED: USER    DPF = ligand_dock.biased.dpf
DOCKED: USER  
DOCKED: USER    Estimated Free Energy of Binding    =  -13.07 kcal/mol  [=(1)+(2)+(3)-(4)]
DOCKED: USER    Estimated Inhibition Constant, Ki   =  264.32 pM (picomolar)  [Temperature = 298.15 K]
DOCKED: USER    
DOCKED: USER    (1) Final Intermolecular Energy     =  -16.05 kcal/mol
DOCKED: USER        vdW + Hbond + desolv Energy     =  -16.05 kcal/mol
DOCKED: USER        Electrostatic Energy            =   +0.00 kcal/mol
DOCKED: USER    (2) Final Total Internal Energy     =   -1.78 kcal/mol
DOCKED: USER    (3) Torsional Free Energy           =   +2.98 kcal/mol
DOCKED: USER    (4) Unbound System's Energy  [=(2)] =   -1.78 kcal/mol
DOCKED: USER    
DOCKED: USER    
DOCKED: USER    NEWDPF move ligand.dum.pdbqt
DOCKED: USER    NEWDPF about 1.858000 0.218000 -0.021000
DOCKED: USER    NEWDPF tran0 37.491899 16.917966 123.947228
DOCKED: USER    NEWDPF quaternion0 0.948716 -0.056690 -0.244069 0.192756
DOCKED: USER    NEWDPF axisangle0 0.966847 -0.057773 -0.248733 157.772692
DOCKED: USER    NEWDPF quat0 0.966847 -0.057773 -0.248733 157.772692
DOCKED: USER    NEWDPF dihe0 179.84 61.39 63.66 180.00 -170.13 -180.00 -114.98 148.79 -88.06 170.37 
DOCKED: USER  keepresnum = 1 
DOCKED: USER  
DOCKED: REMARK  Name = 
DOCKED: REMARK  12 active torsions:
DOCKED: REMARK  status: ('A' for Active; 'I' for Inactive)
DOCKED: REMARK    1  A    between atoms: C_2  and  O_3
DOCKED: REMARK    2  A    between atoms: O_3  and  C_4
DOCKED: REMARK    3  A    between atoms: C_4  and  C_5
DOCKED: REMARK    4  A    between atoms: C_10  and  C_11
DOCKED: REMARK    5  A    between atoms: C_11  and  N_12
DOCKED: REMARK    6  A    between atoms: N_12  and  C_13
DOCKED: REMARK    7  A    between atoms: N_12  and  C_15
DOCKED: REMARK    8  A    between atoms: C_13  and  C_14
DOCKED: REMARK    9  A    between atoms: C_15  and  C_16
DOCKED: REMARK   10  A    between atoms: N_21  and  C_22
DOCKED: REMARK   11  A    between atoms: C_25  and  C_26
DOCKED: REMARK   12  A    between atoms: N_27  and  O_28
DOCKED: REMARK                            x       y       z     vdW  Elec       q    Type
DOCKED: REMARK                         _______ _______ _______ _____ _____    ______ ____
DOCKED: USER                              x       y       z     vdW  Elec       q    Type
DOCKED: USER                           _______ _______ _______ _____ _____    ______ ____
DOCKED: ROOT
DOCKED: ATOM      1  C   UNL     1      36.825  18.115 123.036 -0.19 -0.00    +0.000 C 
DOCKED: ENDROOT
DOCKED: BRANCH   1   2
DOCKED: ATOM      2  C   UNL     1      35.851  18.027 124.174 -0.24 -0.00    +0.000 A 
DOCKED: ATOM      3  C   UNL     1      34.756  17.153 124.099 -0.39 -0.00    +0.000 A 
DOCKED: ATOM      4  C   UNL     1      33.825  17.092 125.139 -0.30 -0.00    +0.000 A 
DOCKED: ATOM      5  C   UNL     1      33.970  17.917 126.264 -0.32 -0.00    +0.000 A 
DOCKED: ATOM      6  C   UNL     1      33.039  17.864 127.313 -0.29 -0.00    +0.000 A 
DOCKED: ATOM      7  C   UNL     1      33.186  18.696 128.435 -0.14 -0.00    +0.000 A 
DOCKED: ATOM      8  C   UNL     1      34.273  19.581 128.503 -0.08 -0.00    +0.000 A 
DOCKED: ATOM      9  C   UNL     1      35.203  19.641 127.462 -0.11 -0.00    +0.000 A 
DOCKED: ATOM     10  C   UNL     1      35.062  18.814 126.339 -0.20 -0.00    +0.000 A 
DOCKED: ATOM     11  C   UNL     1      35.991  18.867 125.290 -0.19 -0.00    +0.000 A 
DOCKED: ATOM     12  CM  UNL     1      34.909  17.978 125.217 -0.45 -0.00    +0.000 AC
DOCKED: ATOM     13  CM  UNL     1      34.122  18.753 127.386 -0.00 -0.00    +0.000 AC
DOCKED: BRANCH   7  12
DOCKED: ATOM     14  C   UNL     1      32.202  18.632 129.573 -0.16 -0.00    +0.000 C 
DOCKED: BRANCH  12  13
DOCKED: ATOM     15  N   UNL     1      30.888  19.153 129.140 -0.21 -0.00    +0.000 N 
DOCKED: ATOM     16  H   UNL     1      30.464  19.639 129.930 +0.01 -0.00    +0.000 HD
DOCKED: BRANCH  13  15
DOCKED: ATOM     17  C   UNL     1      29.955  18.053 128.800 -0.43 -0.00    +0.000 C 
DOCKED: ATOM     18  C   UNL     1      30.678  16.715 128.654 -0.47 -0.00    +0.000 C 
DOCKED: ENDBRANCH  13  15
DOCKED: BRANCH  13  17
DOCKED: ATOM     19  C   UNL     1      31.019  20.187 128.083 -0.23 -0.00    +0.000 C 
DOCKED: ATOM     20  C   UNL     1      30.158  19.930 126.838 -0.36 -0.00    +0.000 C 
DOCKED: ENDBRANCH  13  17
DOCKED: ENDBRANCH  12  13
DOCKED: ENDBRANCH   7  12
DOCKED: ENDBRANCH   1   2
DOCKED: BRANCH   1  19
DOCKED: ATOM     21  O   UNL     1      37.977  17.336 123.344 -0.23 -0.00    +0.000 OA
DOCKED: BRANCH  19  21
DOCKED: ATOM     22  O   UNL     1      39.236  15.515 122.693 -0.37 -0.00    +0.000 OA
DOCKED: ATOM     23  C   UNL     1      38.102  15.995 122.972 -0.31 -0.00    +0.000 C 
DOCKED: ATOM     24  N   UNL     1      36.923  15.187 122.870 -0.36 -0.00    +0.000 N 
DOCKED: ATOM     25  H   UNL     1      36.050  15.636 122.941 -0.01 -0.00    +0.000 HD
DOCKED: BRANCH  22  24
DOCKED: ATOM     26  C   UNL     1      36.930  13.763 122.671 -0.45 -0.00    +0.000 A 
DOCKED: ATOM     27  C   UNL     1      36.785  12.914 123.776 -0.48 -0.00    +0.000 A 
DOCKED: ATOM     28  C   UNL     1      36.809  11.526 123.614 -0.61 -0.00    +0.000 A 
DOCKED: ATOM     29  C   UNL     1      36.988  10.958 122.341 -0.51 -0.00    +0.000 A 
DOCKED: ATOM     30  C   UNL     1      37.168  11.811 121.237 -0.47 -0.00    +0.000 A 
DOCKED: ATOM     31  C   UNL     1      37.143  13.199 121.400 -0.41 -0.00    +0.000 A 
DOCKED: ATOM     32  CM  UNL     1      36.971  12.361 122.507 +0.00 -0.00    +0.000 AC
DOCKED: BRANCH  27  30
DOCKED: ATOM     33  C   UNL     1      37.016   9.483 122.184 -0.63 -0.00    +0.000 C 
DOCKED: ATOM     34  N   UNL     1      37.137   8.614 123.316 -0.66 -0.00    +0.000 N 
DOCKED: ATOM     35  O   UNL     1      36.947   8.980 121.030 -2.68 -0.00    +0.000 OA
DOCKED: ATOM     36  H   UNL     1      37.277   8.993 124.213 -0.58 -0.00    +0.000 HD
DOCKED: BRANCH  31  34
DOCKED: ATOM     37  O   UNL     1      37.058   7.270 123.158 -2.08 -0.00    +0.000 OA
DOCKED: ATOM     38  H   UNL     1      37.797   6.966 122.608 -0.48 -0.00    +0.000 HD
DOCKED: ENDBRANCH  31  34
DOCKED: ENDBRANCH  27  30
DOCKED: ENDBRANCH  22  24
DOCKED: ENDBRANCH  19  21
DOCKED: ENDBRANCH   1  19
DOCKED: TORSDOF 10DOCKED: TER
DOCKED: ENDMDL
________________________________________________________________________________


	BEGINNING GENETIC ALGORITHM DOCKING 63 of 100
Run: 63 Seed: 1145667346 33734189 [ Run 63 of 100 GA/GALS ]
Beginning LAMARCKIAN GENETIC ALGORITHM (LGA), with a maximum of 2500000 energy evaluations.

Final-Value: -17.786


	FINAL GENETIC ALGORITHM DOCKED STATE
	_______________________________________________


Detailed state:  trans 35.861 17.913 123.350 quatxyzw -0.389654 0.415058 -0.023297 -0.821799 center 1.858 0.218 -0.021 ntor 10 -149.6725 -177.4901 14.9320 -168.1288 -180.0000 163.7631 -124.6092 -46.2963 76.3367 149.0788
State:	 35.861  17.913 123.350  -0.684  0.728 -0.041 -69.469   -149.67 -177.49   14.93 -168.13 -180.00  163.76 -124.61  -46.30   76.34  149.08

DOCKED: MODEL       63
DOCKED: USER    Run = 63
DOCKED: USER    DPF = ligand_dock.biased.dpf
DOCKED: USER  
DOCKED: USER    Estimated Free Energy of Binding    =  -12.61 kcal/mol  [=(1)+(2)+(3)-(4)]
DOCKED: USER    Estimated Inhibition Constant, Ki   =  568.13 pM (picomolar)  [Temperature = 298.15 K]
DOCKED: USER    
DOCKED: USER    (1) Final Intermolecular Energy     =  -15.60 kcal/mol
DOCKED: USER        vdW + Hbond + desolv Energy     =  -15.60 kcal/mol
DOCKED: USER        Electrostatic Energy            =   +0.00 kcal/mol
DOCKED: USER    (2) Final Total Internal Energy     =   -2.19 kcal/mol
DOCKED: USER    (3) Torsional Free Energy           =   +2.98 kcal/mol
DOCKED: USER    (4) Unbound System's Energy  [=(2)] =   -2.19 kcal/mol
DOCKED: USER    
DOCKED: USER    
DOCKED: USER    NEWDPF move ligand.dum.pdbqt
DOCKED: USER    NEWDPF about 1.858000 0.218000 -0.021000
DOCKED: USER    NEWDPF tran0 35.860729 17.912938 123.350060
DOCKED: USER    NEWDPF quaternion0 -0.389654 0.415058 -0.023297 -0.821799
DOCKED: USER    NEWDPF axisangle0 -0.683871 0.728457 -0.040888 -69.469328
DOCKED: USER    NEWDPF quat0 -0.683871 0.728457 -0.040888 -69.469328
DOCKED: USER    NEWDPF dihe0 -149.67 -177.49 14.93 -168.13 -180.00 163.76 -124.61 -46.30 76.34 149.08 
DOCKED: USER  keepresnum = 1 
DOCKED: USER  
DOCKED: REMARK  Name = 
DOCKED: REMARK  12 active torsions:
DOCKED: REMARK  status: ('A' for Active; 'I' for Inactive)
DOCKED: REMARK    1  A    between atoms: C_2  and  O_3
DOCKED: REMARK    2  A    between atoms: O_3  and  C_4
DOCKED: REMARK    3  A    between atoms: C_4  and  C_5
DOCKED: REMARK    4  A    between atoms: C_10  and  C_11
DOCKED: REMARK    5  A    between atoms: C_11  and  N_12
DOCKED: REMARK    6  A    between atoms: N_12  and  C_13
DOCKED: REMARK    7  A    between atoms: N_12  and  C_15
DOCKED: REMARK    8  A    between atoms: C_13  and  C_14
DOCKED: REMARK    9  A    between atoms: C_15  and  C_16
DOCKED: REMARK   10  A    between atoms: N_21  and  C_22
DOCKED: REMARK   11  A    between atoms: C_25  and  C_26
DOCKED: REMARK   12  A    between atoms: N_27  and  O_28
DOCKED: REMARK                            x       y       z     vdW  Elec       q    Type
DOCKED: REMARK                         _______ _______ _______ _____ _____    ______ ____
DOCKED: USER                              x       y       z     vdW  Elec       q    Type
DOCKED: USER                           _______ _______ _______ _____ _____    ______ ____
DOCKED: ROOT
DOCKED: ATOM      1  C   UNL     1      36.996  18.444 124.416 -0.20 -0.00    +0.000 C 
DOCKED: ENDROOT
DOCKED: BRANCH   1   2
DOCKED: ATOM      2  C   UNL     1      35.743  18.553 125.235 -0.21 -0.00    +0.000 A 
DOCKED: ATOM      3  C   UNL     1      35.234  19.813 125.582 -0.17 -0.00    +0.000 A 
DOCKED: ATOM      4  C   UNL     1      34.088  19.921 126.374 -0.18 -0.00    +0.000 A 
DOCKED: ATOM      5  C   UNL     1      33.443  18.767 126.841 -0.24 -0.00    +0.000 A 
DOCKED: ATOM      6  C   UNL     1      32.291  18.866 127.638 -0.21 -0.00    +0.000 A 
DOCKED: ATOM      7  C   UNL     1      31.652  17.707 128.108 -0.27 -0.00    +0.000 A 
DOCKED: ATOM      8  C   UNL     1      32.170  16.446 127.772 -0.34 -0.00    +0.000 A 
DOCKED: ATOM      9  C   UNL     1      33.315  16.340 126.980 -0.35 -0.00    +0.000 A 
DOCKED: ATOM     10  C   UNL     1      33.959  17.492 126.509 -0.33 -0.00    +0.000 A 
DOCKED: ATOM     11  C   UNL     1      35.110  17.395 125.713 -0.12 -0.00    +0.000 A 
DOCKED: ATOM     12  CM  UNL     1      34.596  18.657 126.042 -0.13 -0.00    +0.000 AC
DOCKED: ATOM     13  CM  UNL     1      32.805  17.603 127.308 +0.00 -0.00    +0.000 AC
DOCKED: BRANCH   7  12
DOCKED: ATOM     14  C   UNL     1      30.406  17.804 128.948 -0.44 -0.00    +0.000 C 
DOCKED: BRANCH  12  13
DOCKED: ATOM     15  N   UNL     1      30.764  17.996 130.369 -0.31 -0.00    +0.000 N 
DOCKED: ATOM     16  H   UNL     1      30.208  17.348 130.926 -0.37 -0.00    +0.000 HD
DOCKED: BRANCH  13  15
DOCKED: ATOM     17  C   UNL     1      30.394  19.351 130.843 -0.25 -0.00    +0.000 C 
DOCKED: ATOM     18  C   UNL     1      29.402  20.033 129.902 -0.33 -0.00    +0.000 C 
DOCKED: ENDBRANCH  13  15
DOCKED: BRANCH  13  17
DOCKED: ATOM     19  C   UNL     1      32.174  17.621 130.645 -0.25 -0.00    +0.000 C 
DOCKED: ATOM     20  C   UNL     1      32.334  16.355 131.499 -0.28 -0.00    +0.000 C 
DOCKED: ENDBRANCH  13  17
DOCKED: ENDBRANCH  12  13
DOCKED: ENDBRANCH   7  12
DOCKED: ENDBRANCH   1   2
DOCKED: BRANCH   1  19
DOCKED: ATOM     21  O   UNL     1      36.711  17.734 123.215 -0.20 -0.00    +0.000 OA
DOCKED: BRANCH  19  21
DOCKED: ATOM     22  O   UNL     1      38.252  16.019 123.297 -0.34 -0.00    +0.000 OA
DOCKED: ATOM     23  C   UNL     1      37.081  16.401 123.021 -0.30 -0.00    +0.000 C 
DOCKED: ATOM     24  N   UNL     1      36.128  15.487 122.463 -0.28 -0.00    +0.000 N 
DOCKED: ATOM     25  H   UNL     1      35.284  15.858 122.116 -0.01 -0.00    +0.000 HD
DOCKED: BRANCH  22  24
DOCKED: ATOM     26  C   UNL     1      36.321  14.065 122.377 -0.16 -0.00    +0.000 A 
DOCKED: ATOM     27  C   UNL     1      35.943  13.253 123.455 -0.53 -0.00    +0.000 A 
DOCKED: ATOM     28  C   UNL     1      36.139  11.870 123.406 -0.62 -0.00    +0.000 A 
DOCKED: ATOM     29  C   UNL     1      36.727  11.271 122.279 -0.56 -0.00    +0.000 A 
DOCKED: ATOM     30  C   UNL     1      37.139  12.090 121.212 -0.48 -0.00    +0.000 A 
DOCKED: ATOM     31  C   UNL     1      36.942  13.474 121.262 -0.30 -0.00    +0.000 A 
DOCKED: ATOM     32  CM  UNL     1      36.535  12.670 122.332 +0.00 -0.00    +0.000 AC
DOCKED: BRANCH  27  30
DOCKED: ATOM     33  C   UNL     1      36.933   9.802 122.243 -0.62 -0.00    +0.000 C 
DOCKED: ATOM     34  N   UNL     1      37.009   9.029 123.446 -0.58 -0.00    +0.000 N 
DOCKED: ATOM     35  O   UNL     1      37.060   9.220 121.131 -2.74 -0.00    +0.000 OA
DOCKED: ATOM     36  H   UNL     1      36.997   9.480 124.321 -0.50 -0.00    +0.000 HD
DOCKED: BRANCH  31  34
DOCKED: ATOM     37  O   UNL     1      37.096   7.678 123.386 -2.27 -0.00    +0.000 OA
DOCKED: ATOM     38  H   UNL     1      37.330   7.409 122.484 -0.13 -0.00    +0.000 HD
DOCKED: ENDBRANCH  31  34
DOCKED: ENDBRANCH  27  30
DOCKED: ENDBRANCH  22  24
DOCKED: ENDBRANCH  19  21
DOCKED: ENDBRANCH   1  19
DOCKED: TORSDOF 10DOCKED: TER
DOCKED: ENDMDL
________________________________________________________________________________


	BEGINNING GENETIC ALGORITHM DOCKING 64 of 100
Run: 64 Seed: 207291817 1736693484 [ Run 64 of 100 GA/GALS ]
Beginning LAMARCKIAN GENETIC ALGORITHM (LGA), with a maximum of 2500000 energy evaluations.

Final-Value: -17.441


	FINAL GENETIC ALGORITHM DOCKED STATE
	_______________________________________________


Detailed state:  trans 36.397 17.220 123.760 quatxyzw 0.001511 0.870752 0.457760 0.179567 center 1.858 0.218 -0.021 ntor 10 -180.0000 -10.0548 12.8728 -9.9925 -9.9927 12.8418 -25.1705 170.8316 129.7562 41.5312
State:	 36.397  17.220 123.760   0.002  0.885  0.465 159.311   -180.00  -10.05   12.87   -9.99   -9.99   12.84  -25.17  170.83  129.76   41.53

DOCKED: MODEL       64
DOCKED: USER    Run = 64
DOCKED: USER    DPF = ligand_dock.biased.dpf
DOCKED: USER  
DOCKED: USER    Estimated Free Energy of Binding    =  -12.13 kcal/mol  [=(1)+(2)+(3)-(4)]
DOCKED: USER    Estimated Inhibition Constant, Ki   =    1.28 nM (nanomolar)  [Temperature = 298.15 K]
DOCKED: USER    
DOCKED: USER    (1) Final Intermolecular Energy     =  -15.12 kcal/mol
DOCKED: USER        vdW + Hbond + desolv Energy     =  -15.12 kcal/mol
DOCKED: USER        Electrostatic Energy            =   +0.00 kcal/mol
DOCKED: USER    (2) Final Total Internal Energy     =   -2.32 kcal/mol
DOCKED: USER    (3) Torsional Free Energy           =   +2.98 kcal/mol
DOCKED: USER    (4) Unbound System's Energy  [=(2)] =   -2.32 kcal/mol
DOCKED: USER    
DOCKED: USER    
DOCKED: USER    NEWDPF move ligand.dum.pdbqt
DOCKED: USER    NEWDPF about 1.858000 0.218000 -0.021000
DOCKED: USER    NEWDPF tran0 36.396936 17.220146 123.760426
DOCKED: USER    NEWDPF quaternion0 0.001511 0.870752 0.457760 0.179567
DOCKED: USER    NEWDPF axisangle0 0.001536 0.885139 0.465323 159.310867
DOCKED: USER    NEWDPF quat0 0.001536 0.885139 0.465323 159.310867
DOCKED: USER    NEWDPF dihe0 -180.00 -10.05 12.87 -9.99 -9.99 12.84 -25.17 170.83 129.76 41.53 
DOCKED: USER  keepresnum = 1 
DOCKED: USER  
DOCKED: REMARK  Name = 
DOCKED: REMARK  12 active torsions:
DOCKED: REMARK  status: ('A' for Active; 'I' for Inactive)
DOCKED: REMARK    1  A    between atoms: C_2  and  O_3
DOCKED: REMARK    2  A    between atoms: O_3  and  C_4
DOCKED: REMARK    3  A    between atoms: C_4  and  C_5
DOCKED: REMARK    4  A    between atoms: C_10  and  C_11
DOCKED: REMARK    5  A    between atoms: C_11  and  N_12
DOCKED: REMARK    6  A    between atoms: N_12  and  C_13
DOCKED: REMARK    7  A    between atoms: N_12  and  C_15
DOCKED: REMARK    8  A    between atoms: C_13  and  C_14
DOCKED: REMARK    9  A    between atoms: C_15  and  C_16
DOCKED: REMARK   10  A    between atoms: N_21  and  C_22
DOCKED: REMARK   11  A    between atoms: C_25  and  C_26
DOCKED: REMARK   12  A    between atoms: N_27  and  O_28
DOCKED: REMARK                            x       y       z     vdW  Elec       q    Type
DOCKED: REMARK                         _______ _______ _______ _____ _____    ______ ____
DOCKED: USER                              x       y       z     vdW  Elec       q    Type
DOCKED: USER                           _______ _______ _______ _____ _____    ______ ____
DOCKED: ROOT
DOCKED: ATOM      1  C   UNL     1      35.967  18.060 122.412 -0.24 -0.00    +0.000 C 
DOCKED: ENDROOT
DOCKED: BRANCH   1   2
DOCKED: ATOM      2  C   UNL     1      37.424  17.808 122.156 -0.12 -0.00    +0.000 A 
DOCKED: ATOM      3  C   UNL     1      37.872  17.508 120.860 -0.08 -0.00    +0.000 A 
DOCKED: ATOM      4  C   UNL     1      39.221  17.238 120.622 -0.08 -0.00    +0.000 A 
DOCKED: ATOM      5  C   UNL     1      40.141  17.250 121.680 -0.13 -0.00    +0.000 A 
DOCKED: ATOM      6  C   UNL     1      41.499  16.979 121.450 -0.17 -0.00    +0.000 A 
DOCKED: ATOM      7  C   UNL     1      42.414  16.987 122.514 -0.31 -0.00    +0.000 A 
DOCKED: ATOM      8  C   UNL     1      41.964  17.273 123.813 -0.27 -0.00    +0.000 A 
DOCKED: ATOM      9  C   UNL     1      40.615  17.544 124.051 -0.27 -0.00    +0.000 A 
DOCKED: ATOM     10  C   UNL     1      39.695  17.536 122.992 -0.18 -0.00    +0.000 A 
DOCKED: ATOM     11  C   UNL     1      38.338  17.806 123.222 -0.16 -0.00    +0.000 A 
DOCKED: ATOM     12  CM  UNL     1      38.782  17.525 121.922 +0.00 -0.00    +0.000 AC
DOCKED: ATOM     13  CM  UNL     1      41.055  17.261 122.750 +0.00 -0.00    +0.000 AC
DOCKED: BRANCH   7  12
DOCKED: ATOM     14  C   UNL     1      43.876  16.716 122.273 -0.36 -0.00    +0.000 C 
DOCKED: BRANCH  12  13
DOCKED: ATOM     15  N   UNL     1      44.693  17.835 122.787 -0.28 -0.00    +0.000 N 
DOCKED: ATOM     16  H   UNL     1      44.165  18.300 123.525 -0.39 -0.00    +0.000 HD
DOCKED: BRANCH  13  15
DOCKED: ATOM     17  C   UNL     1      44.917  18.866 121.746 -0.13 -0.00    +0.000 C 
DOCKED: ATOM     18  C   UNL     1      44.548  18.358 120.352 -0.07 -0.00    +0.000 C 
DOCKED: ENDBRANCH  13  15
DOCKED: BRANCH  13  17
DOCKED: ATOM     19  C   UNL     1      45.935  17.362 123.449 -0.25 -0.00    +0.000 C 
DOCKED: ATOM     20  C   UNL     1      46.832  16.490 122.559 -0.37 +0.00    +0.000 C 
DOCKED: ENDBRANCH  13  17
DOCKED: ENDBRANCH  12  13
DOCKED: ENDBRANCH   7  12
DOCKED: ENDBRANCH   1   2
DOCKED: BRANCH   1  19
DOCKED: ATOM     21  O   UNL     1      35.549  17.292 123.537 -0.31 -0.00    +0.000 OA
DOCKED: BRANCH  19  21
DOCKED: ATOM     22  O   UNL     1      35.593  15.328 124.747 -0.45 -0.00    +0.000 OA
DOCKED: ATOM     23  C   UNL     1      35.808  15.924 123.655 -0.44 -0.00    +0.000 C 
DOCKED: ATOM     24  N   UNL     1      36.361  15.220 122.535 -0.32 -0.00    +0.000 N 
DOCKED: ATOM     25  H   UNL     1      36.660  15.750 121.761 -0.00 -0.00    +0.000 HD
DOCKED: BRANCH  22  24
DOCKED: ATOM     26  C   UNL     1      36.508  13.792 122.467 -0.33 -0.00    +0.000 A 
DOCKED: ATOM     27  C   UNL     1      37.201  13.223 121.389 -0.41 -0.00    +0.000 A 
DOCKED: ATOM     28  C   UNL     1      37.340  11.836 121.287 -0.43 -0.00    +0.000 A 
DOCKED: ATOM     29  C   UNL     1      36.781  10.988 122.258 -0.55 -0.00    +0.000 A 
DOCKED: ATOM     30  C   UNL     1      36.056  11.558 123.320 -0.62 -0.00    +0.000 A 
DOCKED: ATOM     31  C   UNL     1      35.918  12.946 123.422 -0.53 -0.00    +0.000 A 
DOCKED: ATOM     32  CM  UNL     1      36.634  12.390 122.357 +0.00 -0.00    +0.000 AC
DOCKED: BRANCH  27  30
DOCKED: ATOM     33  C   UNL     1      36.933   9.517 122.134 -0.65 -0.00    +0.000 C 
DOCKED: ATOM     34  N   UNL     1      37.036   8.677 123.290 -0.67 -0.00    +0.000 N 
DOCKED: ATOM     35  O   UNL     1      36.988   8.993 120.989 -2.70 -0.00    +0.000 OA
DOCKED: ATOM     36  H   UNL     1      37.080   9.080 124.187 -0.56 -0.00    +0.000 HD
DOCKED: BRANCH  31  34
DOCKED: ATOM     37  O   UNL     1      37.072   7.330 123.154 -2.14 -0.00    +0.000 OA
DOCKED: ATOM     38  H   UNL     1      37.223   7.102 122.223 -0.15 -0.00    +0.000 HD
DOCKED: ENDBRANCH  31  34
DOCKED: ENDBRANCH  27  30
DOCKED: ENDBRANCH  22  24
DOCKED: ENDBRANCH  19  21
DOCKED: ENDBRANCH   1  19
DOCKED: TORSDOF 10DOCKED: TER
DOCKED: ENDMDL
________________________________________________________________________________


	BEGINNING GENETIC ALGORITHM DOCKING 65 of 100
Run: 65 Seed: 1342418586 451328744 [ Run 65 of 100 GA/GALS ]
Beginning LAMARCKIAN GENETIC ALGORITHM (LGA), with a maximum of 2500000 energy evaluations.

Final-Value: -17.573


	FINAL GENETIC ALGORITHM DOCKED STATE
	_______________________________________________


Detailed state:  trans 36.868 17.085 122.917 quatxyzw -0.903620 0.033166 0.382082 -0.190749 center 1.858 0.218 -0.021 ntor 10 79.5806 139.6267 38.9641 172.3294 175.1067 -172.1366 169.6728 -89.0942 -122.5256 -175.5832
State:	 36.868  17.085 122.917  -0.921  0.034  0.389 -158.007     79.58  139.63   38.96  172.33  175.11 -172.14  169.67  -89.09 -122.53 -175.58

DOCKED: MODEL       65
DOCKED: USER    Run = 65
DOCKED: USER    DPF = ligand_dock.biased.dpf
DOCKED: USER  
DOCKED: USER    Estimated Free Energy of Binding    =  -12.60 kcal/mol  [=(1)+(2)+(3)-(4)]
DOCKED: USER    Estimated Inhibition Constant, Ki   =  580.98 pM (picomolar)  [Temperature = 298.15 K]
DOCKED: USER    
DOCKED: USER    (1) Final Intermolecular Energy     =  -15.58 kcal/mol
DOCKED: USER        vdW + Hbond + desolv Energy     =  -15.58 kcal/mol
DOCKED: USER        Electrostatic Energy            =   +0.00 kcal/mol
DOCKED: USER    (2) Final Total Internal Energy     =   -1.99 kcal/mol
DOCKED: USER    (3) Torsional Free Energy           =   +2.98 kcal/mol
DOCKED: USER    (4) Unbound System's Energy  [=(2)] =   -1.99 kcal/mol
DOCKED: USER    
DOCKED: USER    
DOCKED: USER    NEWDPF move ligand.dum.pdbqt
DOCKED: USER    NEWDPF about 1.858000 0.218000 -0.021000
DOCKED: USER    NEWDPF tran0 36.868268 17.085225 122.916536
DOCKED: USER    NEWDPF quaternion0 -0.903620 0.033166 0.382082 -0.190749
DOCKED: USER    NEWDPF axisangle0 -0.920521 0.033786 0.389229 -158.006979
DOCKED: USER    NEWDPF quat0 -0.920521 0.033786 0.389229 -158.006979
DOCKED: USER    NEWDPF dihe0 79.58 139.63 38.96 172.33 175.11 -172.14 169.67 -89.09 -122.53 -175.58 
DOCKED: USER  keepresnum = 1 
DOCKED: USER  
DOCKED: REMARK  Name = 
DOCKED: REMARK  12 active torsions:
DOCKED: REMARK  status: ('A' for Active; 'I' for Inactive)
DOCKED: REMARK    1  A    between atoms: C_2  and  O_3
DOCKED: REMARK    2  A    between atoms: O_3  and  C_4
DOCKED: REMARK    3  A    between atoms: C_4  and  C_5
DOCKED: REMARK    4  A    between atoms: C_10  and  C_11
DOCKED: REMARK    5  A    between atoms: C_11  and  N_12
DOCKED: REMARK    6  A    between atoms: N_12  and  C_13
DOCKED: REMARK    7  A    between atoms: N_12  and  C_15
DOCKED: REMARK    8  A    between atoms: C_13  and  C_14
DOCKED: REMARK    9  A    between atoms: C_15  and  C_16
DOCKED: REMARK   10  A    between atoms: N_21  and  C_22
DOCKED: REMARK   11  A    between atoms: C_25  and  C_26
DOCKED: REMARK   12  A    between atoms: N_27  and  O_28
DOCKED: REMARK                            x       y       z     vdW  Elec       q    Type
DOCKED: REMARK                         _______ _______ _______ _____ _____    ______ ____
DOCKED: USER                              x       y       z     vdW  Elec       q    Type
DOCKED: USER                           _______ _______ _______ _____ _____    ______ ____
DOCKED: ROOT
DOCKED: ATOM      1  C   UNL     1      35.876  18.236 122.284 -0.24 -0.00    +0.000 C 
DOCKED: ENDROOT
DOCKED: BRANCH   1   2
DOCKED: ATOM      2  C   UNL     1      35.262  18.021 123.637 -0.28 -0.00    +0.000 A 
DOCKED: ATOM      3  C   UNL     1      34.497  16.872 123.890 -0.43 -0.00    +0.000 A 
DOCKED: ATOM      4  C   UNL     1      33.893  16.684 125.136 -0.31 -0.00    +0.000 A 
DOCKED: ATOM      5  C   UNL     1      34.034  17.651 126.142 -0.34 -0.00    +0.000 A 
DOCKED: ATOM      6  C   UNL     1      33.429  17.471 127.395 -0.32 -0.00    +0.000 A 
DOCKED: ATOM      7  C   UNL     1      33.570  18.445 128.397 -0.16 -0.00    +0.000 A 
DOCKED: ATOM      8  C   UNL     1      34.323  19.601 128.139 -0.09 -0.00    +0.000 A 
DOCKED: ATOM      9  C   UNL     1      34.927  19.788 126.893 -0.13 -0.00    +0.000 A 
DOCKED: ATOM     10  C   UNL     1      34.790  18.820 125.888 -0.23 -0.00    +0.000 A 
DOCKED: ATOM     11  C   UNL     1      35.393  19.000 124.634 -0.22 -0.00    +0.000 A 
DOCKED: ATOM     12  CM  UNL     1      34.645  17.841 124.888 -0.45 -0.00    +0.000 AC
DOCKED: ATOM     13  CM  UNL     1      34.179  18.630 127.142 -0.01 -0.00    +0.000 AC
DOCKED: BRANCH   7  12
DOCKED: ATOM     14  C   UNL     1      32.940  18.250 129.752 -0.16 -0.00    +0.000 C 
DOCKED: BRANCH  12  13
DOCKED: ATOM     15  N   UNL     1      31.473  18.134 129.618 -0.25 -0.00    +0.000 N 
DOCKED: ATOM     16  H   UNL     1      31.049  18.459 130.487 -0.03 -0.00    +0.000 HD
DOCKED: BRANCH  13  15
DOCKED: ATOM     17  C   UNL     1      31.052  16.721 129.472 -0.45 -0.00    +0.000 C 
DOCKED: ATOM     18  C   UNL     1      30.444  16.445 128.098 -0.25 -0.00    +0.000 C 
DOCKED: ENDBRANCH  13  15
DOCKED: BRANCH  13  17
DOCKED: ATOM     19  C   UNL     1      30.934  19.039 128.572 -0.27 -0.00    +0.000 C 
DOCKED: ATOM     20  C   UNL     1      29.472  19.456 128.789 -0.36 -0.00    +0.000 C 
DOCKED: ENDBRANCH  13  17
DOCKED: ENDBRANCH  12  13
DOCKED: ENDBRANCH   7  12
DOCKED: ENDBRANCH   1   2
DOCKED: BRANCH   1  19
DOCKED: ATOM     21  O   UNL     1      37.131  17.565 122.228 -0.16 -0.00    +0.000 OA
DOCKED: BRANCH  19  21
DOCKED: ATOM     22  O   UNL     1      37.482  15.763 123.626 -0.38 -0.00    +0.000 OA
DOCKED: ATOM     23  C   UNL     1      37.265  16.194 122.459 -0.28 -0.00    +0.000 C 
DOCKED: ATOM     24  N   UNL     1      37.197  15.290 121.349 -0.24 -0.00    +0.000 N 
DOCKED: ATOM     25  H   UNL     1      37.186  15.675 120.442 -0.00 -0.00    +0.000 HD
DOCKED: BRANCH  22  24
DOCKED: ATOM     26  C   UNL     1      37.144  13.858 121.470 -0.34 -0.00    +0.000 A 
DOCKED: ATOM     27  C   UNL     1      36.696  13.286 122.668 -0.49 -0.00    +0.000 A 
DOCKED: ATOM     28  C   UNL     1      36.654  11.897 122.820 -0.59 -0.00    +0.000 A 
DOCKED: ATOM     29  C   UNL     1      37.069  11.051 121.777 -0.46 -0.00    +0.000 A 
DOCKED: ATOM     30  C   UNL     1      37.553  11.627 120.588 -0.37 -0.00    +0.000 A 
DOCKED: ATOM     31  C   UNL     1      37.593  13.016 120.437 -0.43 -0.00    +0.000 A 
DOCKED: ATOM     32  CM  UNL     1      37.118  12.456 121.627 +0.00 -0.00    +0.000 AC
DOCKED: BRANCH  27  30
DOCKED: ATOM     33  C   UNL     1      37.024   9.579 121.954 -0.62 -0.00    +0.000 C 
DOCKED: ATOM     34  N   UNL     1      37.140   8.978 123.249 -0.61 -0.00    +0.000 N 
DOCKED: ATOM     35  O   UNL     1      36.895   8.835 120.944 -2.66 -0.00    +0.000 OA
DOCKED: ATOM     36  H   UNL     1      37.327   9.541 124.036 -0.54 -0.00    +0.000 HD
DOCKED: BRANCH  31  34
DOCKED: ATOM     37  O   UNL     1      36.994   7.639 123.398 -2.23 -0.00    +0.000 OA
DOCKED: ATOM     38  H   UNL     1      37.413   7.184 122.651 -0.21 -0.00    +0.000 HD
DOCKED: ENDBRANCH  31  34
DOCKED: ENDBRANCH  27  30
DOCKED: ENDBRANCH  22  24
DOCKED: ENDBRANCH  19  21
DOCKED: ENDBRANCH   1  19
DOCKED: TORSDOF 10DOCKED: TER
DOCKED: ENDMDL
________________________________________________________________________________


	BEGINNING GENETIC ALGORITHM DOCKING 66 of 100
Run: 66 Seed: 1512678824 198444939 [ Run 66 of 100 GA/GALS ]
Beginning LAMARCKIAN GENETIC ALGORITHM (LGA), with a maximum of 2500000 energy evaluations.

Final-Value: -16.286


	FINAL GENETIC ALGORITHM DOCKED STATE
	_______________________________________________


Detailed state:  trans 37.944 17.233 122.886 quatxyzw -0.162710 -0.759357 -0.624492 -0.083145 center 1.858 0.218 -0.021 ntor 10 -146.0220 -165.9941 3.5561 -32.6668 -177.8758 179.8922 -177.7371 108.6962 163.8571 -156.7459
State:	 37.944  17.233 122.886  -0.163 -0.762 -0.627 -170.461   -146.02 -165.99    3.56  -32.67 -177.88  179.89 -177.74  108.70  163.86 -156.75

DOCKED: MODEL       66
DOCKED: USER    Run = 66
DOCKED: USER    DPF = ligand_dock.biased.dpf
DOCKED: USER  
DOCKED: USER    Estimated Free Energy of Binding    =  -10.73 kcal/mol  [=(1)+(2)+(3)-(4)]
DOCKED: USER    Estimated Inhibition Constant, Ki   =   13.74 nM (nanomolar)  [Temperature = 298.15 K]
DOCKED: USER    
DOCKED: USER    (1) Final Intermolecular Energy     =  -13.71 kcal/mol
DOCKED: USER        vdW + Hbond + desolv Energy     =  -13.71 kcal/mol
DOCKED: USER        Electrostatic Energy            =   +0.00 kcal/mol
DOCKED: USER    (2) Final Total Internal Energy     =   -2.58 kcal/mol
DOCKED: USER    (3) Torsional Free Energy           =   +2.98 kcal/mol
DOCKED: USER    (4) Unbound System's Energy  [=(2)] =   -2.58 kcal/mol
DOCKED: USER    
DOCKED: USER    
DOCKED: USER    NEWDPF move ligand.dum.pdbqt
DOCKED: USER    NEWDPF about 1.858000 0.218000 -0.021000
DOCKED: USER    NEWDPF tran0 37.943836 17.233089 122.886239
DOCKED: USER    NEWDPF quaternion0 -0.162710 -0.759357 -0.624492 -0.083145
DOCKED: USER    NEWDPF axisangle0 -0.163275 -0.761995 -0.626662 -170.461268
DOCKED: USER    NEWDPF quat0 -0.163275 -0.761995 -0.626662 -170.461268
DOCKED: USER    NEWDPF dihe0 -146.02 -165.99 3.56 -32.67 -177.88 179.89 -177.74 108.70 163.86 -156.75 
DOCKED: USER  keepresnum = 1 
DOCKED: USER  
DOCKED: REMARK  Name = 
DOCKED: REMARK  12 active torsions:
DOCKED: REMARK  status: ('A' for Active; 'I' for Inactive)
DOCKED: REMARK    1  A    between atoms: C_2  and  O_3
DOCKED: REMARK    2  A    between atoms: O_3  and  C_4
DOCKED: REMARK    3  A    between atoms: C_4  and  C_5
DOCKED: REMARK    4  A    between atoms: C_10  and  C_11
DOCKED: REMARK    5  A    between atoms: C_11  and  N_12
DOCKED: REMARK    6  A    between atoms: N_12  and  C_13
DOCKED: REMARK    7  A    between atoms: N_12  and  C_15
DOCKED: REMARK    8  A    between atoms: C_13  and  C_14
DOCKED: REMARK    9  A    between atoms: C_15  and  C_16
DOCKED: REMARK   10  A    between atoms: N_21  and  C_22
DOCKED: REMARK   11  A    between atoms: C_25  and  C_26
DOCKED: REMARK   12  A    between atoms: N_27  and  O_28
DOCKED: REMARK                            x       y       z     vdW  Elec       q    Type
DOCKED: REMARK                         _______ _______ _______ _____ _____    ______ ____
DOCKED: USER                              x       y       z     vdW  Elec       q    Type
DOCKED: USER                           _______ _______ _______ _____ _____    ______ ____
DOCKED: ROOT
DOCKED: ATOM      1  C   UNL     1      37.975  18.564 121.919 -0.09 -0.00    +0.000 C 
DOCKED: ENDROOT
DOCKED: BRANCH   1   2
DOCKED: ATOM      2  C   UNL     1      39.206  17.836 121.466 -0.07 -0.00    +0.000 A 
DOCKED: ATOM      3  C   UNL     1      40.209  17.501 122.389 -0.15 -0.00    +0.000 A 
DOCKED: ATOM      4  C   UNL     1      41.373  16.855 121.967 -0.22 -0.00    +0.000 A 
DOCKED: ATOM      5  C   UNL     1      41.558  16.547 120.612 -0.16 -0.00    +0.000 A 
DOCKED: ATOM      6  C   UNL     1      42.726  15.900 120.179 -0.15 -0.00    +0.000 A 
DOCKED: ATOM      7  C   UNL     1      42.907  15.599 118.819 -0.13 -0.00    +0.000 A 
DOCKED: ATOM      8  C   UNL     1      41.911  15.947 117.894 -0.19 -0.00    +0.000 A 
DOCKED: ATOM      9  C   UNL     1      40.747  16.593 118.316 -0.11 -0.00    +0.000 A 
DOCKED: ATOM     10  C   UNL     1      40.560  16.897 119.672 -0.10 -0.00    +0.000 A 
DOCKED: ATOM     11  C   UNL     1      39.393  17.545 120.105 -0.06 -0.00    +0.000 A 
DOCKED: ATOM     12  CM  UNL     1      40.383  17.197 121.035 +0.00 -0.00    +0.000 AC
DOCKED: ATOM     13  CM  UNL     1      41.735  16.247 119.248 +0.00 -0.00    +0.000 AC
DOCKED: BRANCH   7  12
DOCKED: ATOM     14  C   UNL     1      44.149  14.887 118.349 -0.31 -0.00    +0.000 C 
DOCKED: BRANCH  12  13
DOCKED: ATOM     15  N   UNL     1      45.326  15.771 118.489 -0.24 -0.00    +0.000 N 
DOCKED: ATOM     16  H   UNL     1      45.017  16.645 118.914 +0.01 -0.00    +0.000 HD
DOCKED: BRANCH  13  15
DOCKED: ATOM     17  C   UNL     1      45.884  16.143 117.168 -0.22 -0.00    +0.000 C 
DOCKED: ATOM     18  C   UNL     1      44.865  15.954 116.045 -0.28 -0.00    +0.000 C 
DOCKED: ENDBRANCH  13  15
DOCKED: BRANCH  13  17
DOCKED: ATOM     19  C   UNL     1      46.327  15.222 119.438 -0.36 +0.00    +0.000 C 
DOCKED: ATOM     20  C   UNL     1      46.261  15.830 120.847 -0.29 +0.00    +0.000 C 
DOCKED: ENDBRANCH  13  17
DOCKED: ENDBRANCH  12  13
DOCKED: ENDBRANCH   7  12
DOCKED: ENDBRANCH   1   2
DOCKED: BRANCH   1  19
DOCKED: ATOM     21  O   UNL     1      37.216  17.715 122.774 -0.17 -0.00    +0.000 OA
DOCKED: BRANCH  19  21
DOCKED: ATOM     22  O   UNL     1      37.973  15.823 123.857 -0.30 -0.00    +0.000 OA
DOCKED: ATOM     23  C   UNL     1      37.422  16.335 122.843 -0.28 -0.00    +0.000 C 
DOCKED: ATOM     24  N   UNL     1      37.040  15.516 121.730 -0.25 -0.00    +0.000 N 
DOCKED: ATOM     25  H   UNL     1      36.761  15.969 120.901 -0.00 -0.00    +0.000 HD
DOCKED: BRANCH  22  24
DOCKED: ATOM     26  C   UNL     1      37.034  14.079 121.743 -0.32 -0.00    +0.000 A 
DOCKED: ATOM     27  C   UNL     1      36.695  13.403 122.924 -0.50 -0.00    +0.000 A 
DOCKED: ATOM     28  C   UNL     1      36.703  12.007 122.970 -0.60 -0.00    +0.000 A 
DOCKED: ATOM     29  C   UNL     1      37.059  11.255 121.837 -0.48 -0.00    +0.000 A 
DOCKED: ATOM     30  C   UNL     1      37.433  11.935 120.663 -0.46 -0.00    +0.000 A 
DOCKED: ATOM     31  C   UNL     1      37.425  13.332 120.618 -0.41 -0.00    +0.000 A 
DOCKED: ATOM     32  CM  UNL     1      37.058  12.668 121.793 +0.00 -0.00    +0.000 AC
DOCKED: BRANCH  27  30
DOCKED: ATOM     33  C   UNL     1      37.067   9.774 121.902 -0.58 -0.00    +0.000 C 
DOCKED: ATOM     34  N   UNL     1      37.151   9.081 123.153 -0.61 -0.00    +0.000 N 
DOCKED: ATOM     35  O   UNL     1      37.014   9.104 120.834 -2.71 -0.00    +0.000 OA
DOCKED: ATOM     36  H   UNL     1      37.278   9.589 123.987 -0.52 -0.00    +0.000 HD
DOCKED: BRANCH  31  34
DOCKED: ATOM     37  O   UNL     1      37.054   7.731 123.195 -2.33 -0.00    +0.000 OA
DOCKED: ATOM     38  H   UNL     1      36.988   7.383 122.292 -0.07 -0.00    +0.000 HD
DOCKED: ENDBRANCH  31  34
DOCKED: ENDBRANCH  27  30
DOCKED: ENDBRANCH  22  24
DOCKED: ENDBRANCH  19  21
DOCKED: ENDBRANCH   1  19
DOCKED: TORSDOF 10DOCKED: TER
DOCKED: ENDMDL
________________________________________________________________________________


	BEGINNING GENETIC ALGORITHM DOCKING 67 of 100
Run: 67 Seed: 443386616 80932422 [ Run 67 of 100 GA/GALS ]
Beginning LAMARCKIAN GENETIC ALGORITHM (LGA), with a maximum of 2500000 energy evaluations.

Final-Value: -15.778


	FINAL GENETIC ALGORITHM DOCKED STATE
	_______________________________________________


Detailed state:  trans 36.397 16.962 122.818 quatxyzw -0.698808 0.024274 -0.633567 -0.331168 center 1.858 0.218 -0.021 ntor 10 -59.2509 -159.6009 22.4234 -25.4240 -163.7985 150.9107 -66.0701 -0.7757 -102.4811 100.3669
State:	 36.397  16.962 122.818  -0.741  0.026 -0.671 -141.321    -59.25 -159.60   22.42  -25.42 -163.80  150.91  -66.07   -0.78 -102.48  100.37

DOCKED: MODEL       67
DOCKED: USER    Run = 67
DOCKED: USER    DPF = ligand_dock.biased.dpf
DOCKED: USER  
DOCKED: USER    Estimated Free Energy of Binding    =  -10.73 kcal/mol  [=(1)+(2)+(3)-(4)]
DOCKED: USER    Estimated Inhibition Constant, Ki   =   13.75 nM (nanomolar)  [Temperature = 298.15 K]
DOCKED: USER    
DOCKED: USER    (1) Final Intermolecular Energy     =  -13.71 kcal/mol
DOCKED: USER        vdW + Hbond + desolv Energy     =  -13.71 kcal/mol
DOCKED: USER        Electrostatic Energy            =   +0.00 kcal/mol
DOCKED: USER    (2) Final Total Internal Energy     =   -2.07 kcal/mol
DOCKED: USER    (3) Torsional Free Energy           =   +2.98 kcal/mol
DOCKED: USER    (4) Unbound System's Energy  [=(2)] =   -2.07 kcal/mol
DOCKED: USER    
DOCKED: USER    
DOCKED: USER    NEWDPF move ligand.dum.pdbqt
DOCKED: USER    NEWDPF about 1.858000 0.218000 -0.021000
DOCKED: USER    NEWDPF tran0 36.396753 16.961756 122.817943
DOCKED: USER    NEWDPF quaternion0 -0.698808 0.024274 -0.633567 -0.331168
DOCKED: USER    NEWDPF axisangle0 -0.740598 0.025725 -0.671456 -141.320672
DOCKED: USER    NEWDPF quat0 -0.740598 0.025725 -0.671456 -141.320672
DOCKED: USER    NEWDPF dihe0 -59.25 -159.60 22.42 -25.42 -163.80 150.91 -66.07 -0.78 -102.48 100.37 
DOCKED: USER  keepresnum = 1 
DOCKED: USER  
DOCKED: REMARK  Name = 
DOCKED: REMARK  12 active torsions:
DOCKED: REMARK  status: ('A' for Active; 'I' for Inactive)
DOCKED: REMARK    1  A    between atoms: C_2  and  O_3
DOCKED: REMARK    2  A    between atoms: O_3  and  C_4
DOCKED: REMARK    3  A    between atoms: C_4  and  C_5
DOCKED: REMARK    4  A    between atoms: C_10  and  C_11
DOCKED: REMARK    5  A    between atoms: C_11  and  N_12
DOCKED: REMARK    6  A    between atoms: N_12  and  C_13
DOCKED: REMARK    7  A    between atoms: N_12  and  C_15
DOCKED: REMARK    8  A    between atoms: C_13  and  C_14
DOCKED: REMARK    9  A    between atoms: C_15  and  C_16
DOCKED: REMARK   10  A    between atoms: N_21  and  C_22
DOCKED: REMARK   11  A    between atoms: C_25  and  C_26
DOCKED: REMARK   12  A    between atoms: N_27  and  O_28
DOCKED: REMARK                            x       y       z     vdW  Elec       q    Type
DOCKED: REMARK                         _______ _______ _______ _____ _____    ______ ____
DOCKED: USER                              x       y       z     vdW  Elec       q    Type
DOCKED: USER                           _______ _______ _______ _____ _____    ______ ____
DOCKED: ROOT
DOCKED: ATOM      1  C   UNL     1      37.465  18.194 123.039 -0.16 -0.00    +0.000 C 
DOCKED: ENDROOT
DOCKED: BRANCH   1   2
DOCKED: ATOM      2  C   UNL     1      36.678  18.688 121.861 -0.14 -0.00    +0.000 A 
DOCKED: ATOM      3  C   UNL     1      37.212  19.674 121.018 -0.10 -0.00    +0.000 A 
DOCKED: ATOM      4  C   UNL     1      36.471  20.164 119.940 -0.09 -0.00    +0.000 A 
DOCKED: ATOM      5  C   UNL     1      35.176  19.683 119.699 -0.09 -0.00    +0.000 A 
DOCKED: ATOM      6  C   UNL     1      34.423  20.171 118.620 -0.13 -0.00    +0.000 A 
DOCKED: ATOM      7  C   UNL     1      33.124  19.689 118.386 -0.20 -0.00    +0.000 A 
DOCKED: ATOM      8  C   UNL     1      32.584  18.713 119.237 -0.33 -0.00    +0.000 A 
DOCKED: ATOM      9  C   UNL     1      33.326  18.224 120.315 -0.32 -0.00    +0.000 A 
DOCKED: ATOM     10  C   UNL     1      34.622  18.701 120.554 -0.24 -0.00    +0.000 A 
DOCKED: ATOM     11  C   UNL     1      35.376  18.215 121.634 -0.25 -0.00    +0.000 A 
DOCKED: ATOM     12  CM  UNL     1      35.922  19.187 120.785 +0.00 -0.00    +0.000 AC
DOCKED: ATOM     13  CM  UNL     1      33.876  19.197 119.469 +0.00 -0.00    +0.000 AC
DOCKED: BRANCH   7  12
DOCKED: ATOM     14  C   UNL     1      32.317  20.193 117.218 -0.12 -0.00    +0.000 C 
DOCKED: BRANCH  12  13
DOCKED: ATOM     15  N   UNL     1      31.388  21.254 117.663 -0.14 -0.00    +0.000 N 
DOCKED: ATOM     16  H   UNL     1      31.629  21.505 118.621 -0.03 -0.00    +0.000 HD
DOCKED: BRANCH  13  15
DOCKED: ATOM     17  C   UNL     1      29.991  20.762 117.717 -0.18 -0.00    +0.000 C 
DOCKED: ATOM     18  C   UNL     1      29.511  20.566 119.155 -0.32 -0.00    +0.000 C 
DOCKED: ENDBRANCH  13  15
DOCKED: BRANCH  13  17
DOCKED: ATOM     19  C   UNL     1      31.560  22.508 116.887 -0.08 -0.00    +0.000 C 
DOCKED: ATOM     20  C   UNL     1      32.533  23.513 117.520 -0.11 -0.00    +0.000 C 
DOCKED: ENDBRANCH  13  17
DOCKED: ENDBRANCH  12  13
DOCKED: ENDBRANCH   7  12
DOCKED: ENDBRANCH   1   2
DOCKED: BRANCH   1  19
DOCKED: ATOM     21  O   UNL     1      36.823  17.045 123.583 -0.28 -0.00    +0.000 OA
DOCKED: BRANCH  19  21
DOCKED: ATOM     22  O   UNL     1      37.564  15.622 121.925 -0.26 -0.00    +0.000 OA
DOCKED: ATOM     23  C   UNL     1      36.918  15.780 122.998 -0.36 -0.00    +0.000 C 
DOCKED: ATOM     24  N   UNL     1      36.238  14.676 123.609 -0.48 -0.00    +0.000 N 
DOCKED: ATOM     25  H   UNL     1      35.621  14.870 124.351 -0.04 -0.00    +0.000 HD
DOCKED: BRANCH  22  24
DOCKED: ATOM     26  C   UNL     1      36.398  13.303 123.212 -0.53 -0.00    +0.000 A 
DOCKED: ATOM     27  C   UNL     1      36.321  12.294 124.182 -0.47 -0.00    +0.000 A 
DOCKED: ATOM     28  C   UNL     1      36.494  10.953 123.826 -0.36 -0.00    +0.000 A 
DOCKED: ATOM     29  C   UNL     1      36.757  10.595 122.493 -0.57 -0.00    +0.000 A 
DOCKED: ATOM     30  C   UNL     1      36.869  11.611 121.528 -0.49 -0.00    +0.000 A 
DOCKED: ATOM     31  C   UNL     1      36.696  12.952 121.884 -0.42 -0.00    +0.000 A 
DOCKED: ATOM     32  CM  UNL     1      36.589  11.951 122.854 +0.00 -0.00    +0.000 AC
DOCKED: BRANCH  27  30
DOCKED: ATOM     33  C   UNL     1      36.942   9.168 122.132 -0.68 -0.00    +0.000 C 
DOCKED: ATOM     34  N   UNL     1      36.996   8.145 123.133 -0.74 -0.00    +0.000 N 
DOCKED: ATOM     35  O   UNL     1      37.070   8.846 120.919 -2.71 -0.00    +0.000 OA
DOCKED: ATOM     36  H   UNL     1      36.983   8.390 124.086 -0.37 -0.00    +0.000 HD
DOCKED: BRANCH  31  34
DOCKED: ATOM     37  O   UNL     1      37.065   6.840 122.773 -1.56 -0.00    +0.000 OA
DOCKED: ATOM     38  H   UNL     1      37.417   6.771 121.872 -0.38 -0.00    +0.000 HD
DOCKED: ENDBRANCH  31  34
DOCKED: ENDBRANCH  27  30
DOCKED: ENDBRANCH  22  24
DOCKED: ENDBRANCH  19  21
DOCKED: ENDBRANCH   1  19
DOCKED: TORSDOF 10DOCKED: TER
DOCKED: ENDMDL
________________________________________________________________________________


	BEGINNING GENETIC ALGORITHM DOCKING 68 of 100
Run: 68 Seed: 1948180740 1237995441 [ Run 68 of 100 GA/GALS ]
Beginning LAMARCKIAN GENETIC ALGORITHM (LGA), with a maximum of 2500000 energy evaluations.

Final-Value: -18.136


	FINAL GENETIC ALGORITHM DOCKED STATE
	_______________________________________________


Detailed state:  trans 36.879 17.051 123.446 quatxyzw 0.898587 -0.088126 -0.423455 0.073903 center 1.858 0.218 -0.021 ntor 10 79.3308 151.0682 14.0483 -90.2677 -172.2348 133.5332 -72.7512 129.7725 -74.9799 -1.9985
State:	 36.879  17.051 123.446   0.901 -0.088 -0.425 171.524     79.33  151.07   14.05  -90.27 -172.23  133.53  -72.75  129.77  -74.98   -2.00

DOCKED: MODEL       68
DOCKED: USER    Run = 68
DOCKED: USER    DPF = ligand_dock.biased.dpf
DOCKED: USER  
DOCKED: USER    Estimated Free Energy of Binding    =  -12.94 kcal/mol  [=(1)+(2)+(3)-(4)]
DOCKED: USER    Estimated Inhibition Constant, Ki   =  328.86 pM (picomolar)  [Temperature = 298.15 K]
DOCKED: USER    
DOCKED: USER    (1) Final Intermolecular Energy     =  -15.92 kcal/mol
DOCKED: USER        vdW + Hbond + desolv Energy     =  -15.92 kcal/mol
DOCKED: USER        Electrostatic Energy            =   +0.00 kcal/mol
DOCKED: USER    (2) Final Total Internal Energy     =   -2.22 kcal/mol
DOCKED: USER    (3) Torsional Free Energy           =   +2.98 kcal/mol
DOCKED: USER    (4) Unbound System's Energy  [=(2)] =   -2.22 kcal/mol
DOCKED: USER    
DOCKED: USER    
DOCKED: USER    NEWDPF move ligand.dum.pdbqt
DOCKED: USER    NEWDPF about 1.858000 0.218000 -0.021000
DOCKED: USER    NEWDPF tran0 36.879405 17.050741 123.446176
DOCKED: USER    NEWDPF quaternion0 0.898587 -0.088126 -0.423455 0.073903
DOCKED: USER    NEWDPF axisangle0 0.901051 -0.088367 -0.424616 171.523627
DOCKED: USER    NEWDPF quat0 0.901051 -0.088367 -0.424616 171.523627
DOCKED: USER    NEWDPF dihe0 79.33 151.07 14.05 -90.27 -172.23 133.53 -72.75 129.77 -74.98 -2.00 
DOCKED: USER  keepresnum = 1 
DOCKED: USER  
DOCKED: REMARK  Name = 
DOCKED: REMARK  12 active torsions:
DOCKED: REMARK  status: ('A' for Active; 'I' for Inactive)
DOCKED: REMARK    1  A    between atoms: C_2  and  O_3
DOCKED: REMARK    2  A    between atoms: O_3  and  C_4
DOCKED: REMARK    3  A    between atoms: C_4  and  C_5
DOCKED: REMARK    4  A    between atoms: C_10  and  C_11
DOCKED: REMARK    5  A    between atoms: C_11  and  N_12
DOCKED: REMARK    6  A    between atoms: N_12  and  C_13
DOCKED: REMARK    7  A    between atoms: N_12  and  C_15
DOCKED: REMARK    8  A    between atoms: C_13  and  C_14
DOCKED: REMARK    9  A    between atoms: C_15  and  C_16
DOCKED: REMARK   10  A    between atoms: N_21  and  C_22
DOCKED: REMARK   11  A    between atoms: C_25  and  C_26
DOCKED: REMARK   12  A    between atoms: N_27  and  O_28
DOCKED: REMARK                            x       y       z     vdW  Elec       q    Type
DOCKED: REMARK                         _______ _______ _______ _____ _____    ______ ____
DOCKED: USER                              x       y       z     vdW  Elec       q    Type
DOCKED: USER                           _______ _______ _______ _____ _____    ______ ____
DOCKED: ROOT
DOCKED: ATOM      1  C   UNL     1      35.805  18.018 122.660 -0.26 -0.00    +0.000 C 
DOCKED: ENDROOT
DOCKED: BRANCH   1   2
DOCKED: ATOM      2  C   UNL     1      35.341  18.148 124.082 -0.27 -0.00    +0.000 A 
DOCKED: ATOM      3  C   UNL     1      35.729  19.254 124.853 -0.19 -0.00    +0.000 A 
DOCKED: ATOM      4  C   UNL     1      35.330  19.363 126.187 -0.17 -0.00    +0.000 A 
DOCKED: ATOM      5  C   UNL     1      34.547  18.358 126.773 -0.22 -0.00    +0.000 A 
DOCKED: ATOM      6  C   UNL     1      34.142  18.459 128.114 -0.16 -0.00    +0.000 A 
DOCKED: ATOM      7  C   UNL     1      33.362  17.447 128.697 -0.25 -0.00    +0.000 A 
DOCKED: ATOM      8  C   UNL     1      32.986  16.334 127.930 -0.39 -0.00    +0.000 A 
DOCKED: ATOM      9  C   UNL     1      33.385  16.226 126.596 -0.13 -0.00    +0.000 A 
DOCKED: ATOM     10  C   UNL     1      34.165  17.232 126.008 -0.35 -0.00    +0.000 A 
DOCKED: ATOM     11  C   UNL     1      34.570  17.131 124.668 -0.40 -0.00    +0.000 A 
DOCKED: ATOM     12  CM  UNL     1      34.947  18.247 125.428 -0.37 -0.00    +0.000 AC
DOCKED: ATOM     13  CM  UNL     1      33.765  17.342 127.353 -0.00 -0.00    +0.000 AC
DOCKED: BRANCH   7  12
DOCKED: ATOM     14  C   UNL     1      32.908  17.557 130.129 -0.23 -0.00    +0.000 C 
DOCKED: BRANCH  12  13
DOCKED: ATOM     15  N   UNL     1      33.524  16.485 130.941 -0.25 -0.00    +0.000 N 
DOCKED: ATOM     16  H   UNL     1      33.302  15.591 130.506 -0.48 -0.00    +0.000 HD
DOCKED: BRANCH  13  15
DOCKED: ATOM     17  C   UNL     1      32.933  16.428 132.299 -0.27 -0.00    +0.000 C 
DOCKED: ATOM     18  C   UNL     1      33.951  16.790 133.380 -0.19 -0.00    +0.000 C 
DOCKED: ENDBRANCH  13  15
DOCKED: BRANCH  13  17
DOCKED: ATOM     19  C   UNL     1      35.007  16.556 130.926 -0.23 -0.00    +0.000 C 
DOCKED: ATOM     20  C   UNL     1      35.704  15.189 130.890 -0.32 -0.00    +0.000 C 
DOCKED: ENDBRANCH  13  17
DOCKED: ENDBRANCH  12  13
DOCKED: ENDBRANCH   7  12
DOCKED: ENDBRANCH   1   2
DOCKED: BRANCH   1  19
DOCKED: ATOM     21  O   UNL     1      37.059  17.344 122.636 -0.19 -0.00    +0.000 OA
DOCKED: BRANCH  19  21
DOCKED: ATOM     22  O   UNL     1      38.045  15.692 121.363 -0.22 -0.00    +0.000 OA
DOCKED: ATOM     23  C   UNL     1      37.193  16.012 122.237 -0.28 -0.00    +0.000 C 
DOCKED: ATOM     24  N   UNL     1      36.321  15.024 122.802 -0.37 -0.00    +0.000 N 
DOCKED: ATOM     25  H   UNL     1      35.570  15.337 123.358 -0.02 -0.00    +0.000 HD
DOCKED: BRANCH  22  24
DOCKED: ATOM     26  C   UNL     1      36.468  13.607 122.611 -0.39 -0.00    +0.000 A 
DOCKED: ATOM     27  C   UNL     1      36.246  12.741 123.691 -0.57 -0.00    +0.000 A 
DOCKED: ATOM     28  C   UNL     1      36.404  11.361 123.539 -0.61 -0.00    +0.000 A 
DOCKED: ATOM     29  C   UNL     1      36.796  10.818 122.303 -0.55 -0.00    +0.000 A 
DOCKED: ATOM     30  C   UNL     1      37.053  11.690 121.230 -0.48 -0.00    +0.000 A 
DOCKED: ATOM     31  C   UNL     1      36.895  13.071 121.383 -0.37 -0.00    +0.000 A 
DOCKED: ATOM     32  CM  UNL     1      36.644  12.214 122.460 +0.00 -0.00    +0.000 AC
DOCKED: BRANCH  27  30
DOCKED: ATOM     33  C   UNL     1      36.963   9.351 122.158 -0.66 -0.00    +0.000 C 
DOCKED: ATOM     34  N   UNL     1      37.046   8.491 123.301 -0.69 -0.00    +0.000 N 
DOCKED: ATOM     35  O   UNL     1      37.050   8.847 121.005 -2.70 -0.00    +0.000 OA
DOCKED: ATOM     36  H   UNL     1      37.065   8.879 124.206 -0.54 -0.00    +0.000 HD
DOCKED: BRANCH  31  34
DOCKED: ATOM     37  O   UNL     1      37.097   7.147 123.143 -1.94 -0.00    +0.000 OA
DOCKED: ATOM     38  H   UNL     1      37.290   6.937 122.216 -0.21 -0.00    +0.000 HD
DOCKED: ENDBRANCH  31  34
DOCKED: ENDBRANCH  27  30
DOCKED: ENDBRANCH  22  24
DOCKED: ENDBRANCH  19  21
DOCKED: ENDBRANCH   1  19
DOCKED: TORSDOF 10DOCKED: TER
DOCKED: ENDMDL
________________________________________________________________________________


	BEGINNING GENETIC ALGORITHM DOCKING 69 of 100
Run: 69 Seed: 1336498455 1283136662 [ Run 69 of 100 GA/GALS ]
Beginning LAMARCKIAN GENETIC ALGORITHM (LGA), with a maximum of 2500000 energy evaluations.

Final-Value: -18.025


	FINAL GENETIC ALGORITHM DOCKED STATE
	_______________________________________________


Detailed state:  trans 34.543 17.261 124.055 quatxyzw -0.438128 0.444721 -0.085596 -0.776492 center 1.858 0.218 -0.021 ntor 10 -165.3110 136.2822 41.6194 -159.5077 166.4857 165.7196 157.7785 49.4323 74.5786 164.6247
State:	 34.543  17.261 124.055  -0.695  0.706 -0.136 -78.119   -165.31  136.28   41.62 -159.51  166.49  165.72  157.78   49.43   74.58  164.62

DOCKED: MODEL       69
DOCKED: USER    Run = 69
DOCKED: USER    DPF = ligand_dock.biased.dpf
DOCKED: USER  
DOCKED: USER    Estimated Free Energy of Binding    =  -13.36 kcal/mol  [=(1)+(2)+(3)-(4)]
DOCKED: USER    Estimated Inhibition Constant, Ki   =  160.09 pM (picomolar)  [Temperature = 298.15 K]
DOCKED: USER    
DOCKED: USER    (1) Final Intermolecular Energy     =  -16.35 kcal/mol
DOCKED: USER        vdW + Hbond + desolv Energy     =  -16.35 kcal/mol
DOCKED: USER        Electrostatic Energy            =   +0.00 kcal/mol
DOCKED: USER    (2) Final Total Internal Energy     =   -1.68 kcal/mol
DOCKED: USER    (3) Torsional Free Energy           =   +2.98 kcal/mol
DOCKED: USER    (4) Unbound System's Energy  [=(2)] =   -1.68 kcal/mol
DOCKED: USER    
DOCKED: USER    
DOCKED: USER    NEWDPF move ligand.dum.pdbqt
DOCKED: USER    NEWDPF about 1.858000 0.218000 -0.021000
DOCKED: USER    NEWDPF tran0 34.542686 17.260874 124.054825
DOCKED: USER    NEWDPF quaternion0 -0.438128 0.444721 -0.085596 -0.776492
DOCKED: USER    NEWDPF axisangle0 -0.695302 0.705764 -0.135840 -78.119004
DOCKED: USER    NEWDPF quat0 -0.695302 0.705764 -0.135840 -78.119004
DOCKED: USER    NEWDPF dihe0 -165.31 136.28 41.62 -159.51 166.49 165.72 157.78 49.43 74.58 164.62 
DOCKED: USER  keepresnum = 1 
DOCKED: USER  
DOCKED: REMARK  Name = 
DOCKED: REMARK  12 active torsions:
DOCKED: REMARK  status: ('A' for Active; 'I' for Inactive)
DOCKED: REMARK    1  A    between atoms: C_2  and  O_3
DOCKED: REMARK    2  A    between atoms: O_3  and  C_4
DOCKED: REMARK    3  A    between atoms: C_4  and  C_5
DOCKED: REMARK    4  A    between atoms: C_10  and  C_11
DOCKED: REMARK    5  A    between atoms: C_11  and  N_12
DOCKED: REMARK    6  A    between atoms: N_12  and  C_13
DOCKED: REMARK    7  A    between atoms: N_12  and  C_15
DOCKED: REMARK    8  A    between atoms: C_13  and  C_14
DOCKED: REMARK    9  A    between atoms: C_15  and  C_16
DOCKED: REMARK   10  A    between atoms: N_21  and  C_22
DOCKED: REMARK   11  A    between atoms: C_25  and  C_26
DOCKED: REMARK   12  A    between atoms: N_27  and  O_28
DOCKED: REMARK                            x       y       z     vdW  Elec       q    Type
DOCKED: REMARK                         _______ _______ _______ _____ _____    ______ ____
DOCKED: USER                              x       y       z     vdW  Elec       q    Type
DOCKED: USER                           _______ _______ _______ _____ _____    ______ ____
DOCKED: ROOT
DOCKED: ATOM      1  C   UNL     1      35.768  17.854 124.980 -0.28 -0.00    +0.000 C 
DOCKED: ENDROOT
DOCKED: BRANCH   1   2
DOCKED: ATOM      2  C   UNL     1      34.568  18.207 125.810 -0.29 -0.00    +0.000 A 
DOCKED: ATOM      3  C   UNL     1      33.987  19.480 125.705 -0.21 -0.00    +0.000 A 
DOCKED: ATOM      4  C   UNL     1      32.892  19.827 126.500 -0.21 -0.00    +0.000 A 
DOCKED: ATOM      5  C   UNL     1      32.371  18.909 127.423 -0.21 -0.00    +0.000 A 
DOCKED: ATOM      6  C   UNL     1      31.273  19.250 128.227 -0.21 -0.00    +0.000 A 
DOCKED: ATOM      7  C   UNL     1      30.758  18.327 129.153 -0.30 -0.00    +0.000 A 
DOCKED: ATOM      8  C   UNL     1      31.348  17.059 129.268 -0.39 -0.00    +0.000 A 
DOCKED: ATOM      9  C   UNL     1      32.443  16.712 128.472 -0.39 -0.00    +0.000 A 
DOCKED: ATOM     10  C   UNL     1      32.962  17.629 127.547 -0.31 -0.00    +0.000 A 
DOCKED: ATOM     11  C   UNL     1      34.060  17.289 126.743 -0.30 -0.00    +0.000 A 
DOCKED: ATOM     12  CM  UNL     1      33.474  18.557 126.621 -0.01 -0.00    +0.000 AC
DOCKED: ATOM     13  CM  UNL     1      31.859  17.981 128.349 +0.00 -0.00    +0.000 AC
DOCKED: BRANCH   7  12
DOCKED: ATOM     14  C   UNL     1      29.568  18.678 130.006 -0.03 -0.00    +0.000 C 
DOCKED: BRANCH  12  13
DOCKED: ATOM     15  N   UNL     1      30.000  19.452 131.189 -0.27 -0.00    +0.000 N 
DOCKED: ATOM     16  H   UNL     1      29.668  18.969 132.023 -0.57 -0.00    +0.000 HD
DOCKED: BRANCH  13  15
DOCKED: ATOM     17  C   UNL     1      29.364  20.791 131.222 -0.30 -0.00    +0.000 C 
DOCKED: ATOM     18  C   UNL     1      28.419  21.003 130.041 -0.41 -0.00    +0.000 C 
DOCKED: ENDBRANCH  13  15
DOCKED: BRANCH  13  17
DOCKED: ATOM     19  C   UNL     1      31.478  19.479 131.329 -0.14 -0.00    +0.000 C 
DOCKED: ATOM     20  C   UNL     1      31.972  19.753 132.757 -0.10 -0.00    +0.000 C 
DOCKED: ENDBRANCH  13  17
DOCKED: ENDBRANCH  12  13
DOCKED: ENDBRANCH   7  12
DOCKED: ENDBRANCH   1   2
DOCKED: BRANCH   1  19
DOCKED: ATOM     21  O   UNL     1      35.368  16.986 123.924 -0.37 -0.00    +0.000 OA
DOCKED: BRANCH  19  21
DOCKED: ATOM     22  O   UNL     1      35.405  14.919 124.949 -0.46 -0.00    +0.000 OA
DOCKED: ATOM     23  C   UNL     1      35.647  15.617 123.925 -0.48 -0.00    +0.000 C 
DOCKED: ATOM     24  N   UNL     1      36.250  15.028 122.766 -0.36 -0.00    +0.000 N 
DOCKED: ATOM     25  H   UNL     1      36.566  15.631 122.055 -0.01 -0.00    +0.000 HD
DOCKED: BRANCH  22  24
DOCKED: ATOM     26  C   UNL     1      36.425  13.614 122.572 -0.36 -0.00    +0.000 A 
DOCKED: ATOM     27  C   UNL     1      35.802  12.717 123.451 -0.50 -0.00    +0.000 A 
DOCKED: ATOM     28  C   UNL     1      35.973  11.339 123.298 -0.62 -0.00    +0.000 A 
DOCKED: ATOM     29  C   UNL     1      36.779  10.828 122.266 -0.55 -0.00    +0.000 A 
DOCKED: ATOM     30  C   UNL     1      37.433  11.730 121.407 -0.37 -0.00    +0.000 A 
DOCKED: ATOM     31  C   UNL     1      37.261  13.109 121.561 -0.43 -0.00    +0.000 A 
DOCKED: ATOM     32  CM  UNL     1      36.612  12.222 122.426 +0.00 -0.00    +0.000 AC
DOCKED: BRANCH  27  30
DOCKED: ATOM     33  C   UNL     1      36.955   9.362 122.119 -0.66 -0.00    +0.000 C 
DOCKED: ATOM     34  N   UNL     1      37.031   8.501 123.261 -0.70 -0.00    +0.000 N 
DOCKED: ATOM     35  O   UNL     1      37.054   8.861 120.966 -2.71 -0.00    +0.000 OA
DOCKED: ATOM     36  H   UNL     1      37.041   8.886 124.167 -0.52 -0.00    +0.000 HD
DOCKED: BRANCH  31  34
DOCKED: ATOM     37  O   UNL     1      37.090   7.157 123.100 -1.96 -0.00    +0.000 OA
DOCKED: ATOM     38  H   UNL     1      37.685   6.945 122.364 -0.38 -0.00    +0.000 HD
DOCKED: ENDBRANCH  31  34
DOCKED: ENDBRANCH  27  30
DOCKED: ENDBRANCH  22  24
DOCKED: ENDBRANCH  19  21
DOCKED: ENDBRANCH   1  19
DOCKED: TORSDOF 10DOCKED: TER
DOCKED: ENDMDL
________________________________________________________________________________


	BEGINNING GENETIC ALGORITHM DOCKING 70 of 100
Run: 70 Seed: 520007570 422004758 [ Run 70 of 100 GA/GALS ]
Beginning LAMARCKIAN GENETIC ALGORITHM (LGA), with a maximum of 2500000 energy evaluations.

Final-Value: -17.843


	FINAL GENETIC ALGORITHM DOCKED STATE
	_______________________________________________


Detailed state:  trans 36.946 17.154 123.999 quatxyzw 0.942437 -0.161497 -0.277232 0.094196 center 1.858 0.218 -0.021 ntor 10 -166.5408 -178.0630 15.0807 179.9998 -177.0536 -5.6625 -78.3842 114.3907 -64.6036 32.3939
State:	 36.946  17.154 123.999   0.947 -0.162 -0.278 169.190   -166.54 -178.06   15.08  180.00 -177.05   -5.66  -78.38  114.39  -64.60   32.39

DOCKED: MODEL       70
DOCKED: USER    Run = 70
DOCKED: USER    DPF = ligand_dock.biased.dpf
DOCKED: USER  
DOCKED: USER    Estimated Free Energy of Binding    =  -12.74 kcal/mol  [=(1)+(2)+(3)-(4)]
DOCKED: USER    Estimated Inhibition Constant, Ki   =  454.99 pM (picomolar)  [Temperature = 298.15 K]
DOCKED: USER    
DOCKED: USER    (1) Final Intermolecular Energy     =  -15.73 kcal/mol
DOCKED: USER        vdW + Hbond + desolv Energy     =  -15.73 kcal/mol
DOCKED: USER        Electrostatic Energy            =   +0.00 kcal/mol
DOCKED: USER    (2) Final Total Internal Energy     =   -2.12 kcal/mol
DOCKED: USER    (3) Torsional Free Energy           =   +2.98 kcal/mol
DOCKED: USER    (4) Unbound System's Energy  [=(2)] =   -2.12 kcal/mol
DOCKED: USER    
DOCKED: USER    
DOCKED: USER    NEWDPF move ligand.dum.pdbqt
DOCKED: USER    NEWDPF about 1.858000 0.218000 -0.021000
DOCKED: USER    NEWDPF tran0 36.945643 17.154425 123.998863
DOCKED: USER    NEWDPF quaternion0 0.942437 -0.161497 -0.277232 0.094196
DOCKED: USER    NEWDPF axisangle0 0.946647 -0.162218 -0.278470 169.189922
DOCKED: USER    NEWDPF quat0 0.946647 -0.162218 -0.278470 169.189922
DOCKED: USER    NEWDPF dihe0 -166.54 -178.06 15.08 180.00 -177.05 -5.66 -78.38 114.39 -64.60 32.39 
DOCKED: USER  keepresnum = 1 
DOCKED: USER  
DOCKED: REMARK  Name = 
DOCKED: REMARK  12 active torsions:
DOCKED: REMARK  status: ('A' for Active; 'I' for Inactive)
DOCKED: REMARK    1  A    between atoms: C_2  and  O_3
DOCKED: REMARK    2  A    between atoms: O_3  and  C_4
DOCKED: REMARK    3  A    between atoms: C_4  and  C_5
DOCKED: REMARK    4  A    between atoms: C_10  and  C_11
DOCKED: REMARK    5  A    between atoms: C_11  and  N_12
DOCKED: REMARK    6  A    between atoms: N_12  and  C_13
DOCKED: REMARK    7  A    between atoms: N_12  and  C_15
DOCKED: REMARK    8  A    between atoms: C_13  and  C_14
DOCKED: REMARK    9  A    between atoms: C_15  and  C_16
DOCKED: REMARK   10  A    between atoms: N_21  and  C_22
DOCKED: REMARK   11  A    between atoms: C_25  and  C_26
DOCKED: REMARK   12  A    between atoms: N_27  and  O_28
DOCKED: REMARK                            x       y       z     vdW  Elec       q    Type
DOCKED: REMARK                         _______ _______ _______ _____ _____    ______ ____
DOCKED: USER                              x       y       z     vdW  Elec       q    Type
DOCKED: USER                           _______ _______ _______ _____ _____    ______ ____
DOCKED: ROOT
DOCKED: ATOM      1  C   UNL     1      36.317  18.207 122.901 -0.21 -0.00    +0.000 C 
DOCKED: ENDROOT
DOCKED: BRANCH   1   2
DOCKED: ATOM      2  C   UNL     1      35.498  18.521 124.119 -0.24 -0.00    +0.000 A 
DOCKED: ATOM      3  C   UNL     1      35.303  19.853 124.514 -0.12 -0.00    +0.000 A 
DOCKED: ATOM      4  C   UNL     1      34.571  20.150 125.666 -0.16 -0.00    +0.000 A 
DOCKED: ATOM      5  C   UNL     1      34.036  19.116 126.448 -0.22 -0.00    +0.000 A 
DOCKED: ATOM      6  C   UNL     1      33.301  19.405 127.609 -0.15 -0.00    +0.000 A 
DOCKED: ATOM      7  C   UNL     1      32.772  18.365 128.390 -0.18 -0.00    +0.000 A 
DOCKED: ATOM      8  C   UNL     1      32.980  17.032 128.003 -0.36 -0.00    +0.000 A 
DOCKED: ATOM      9  C   UNL     1      33.712  16.736 126.850 -0.37 -0.00    +0.000 A 
DOCKED: ATOM     10  C   UNL     1      34.243  17.769 126.066 -0.32 -0.00    +0.000 A 
DOCKED: ATOM     11  C   UNL     1      34.979  17.481 124.906 -0.33 -0.00    +0.000 A 
DOCKED: ATOM     12  CM  UNL     1      34.772  18.815 125.286 -0.22 -0.00    +0.000 AC
DOCKED: ATOM     13  CM  UNL     1      33.508  18.070 127.228 +0.00 -0.00    +0.000 AC
DOCKED: BRANCH   7  12
DOCKED: ATOM     14  C   UNL     1      31.966  18.667 129.627 -0.18 -0.00    +0.000 C 
DOCKED: BRANCH  12  13
DOCKED: ATOM     15  N   UNL     1      30.531  18.420 129.371 -0.31 -0.00    +0.000 N 
DOCKED: ATOM     16  H   UNL     1      29.993  19.113 129.890 -0.00 -0.00    +0.000 HD
DOCKED: BRANCH  13  15
DOCKED: ATOM     17  C   UNL     1      30.106  17.103 129.902 -0.18 -0.00    +0.000 C 
DOCKED: ATOM     18  C   UNL     1      31.263  16.353 130.561 -0.35 -0.00    +0.000 C 
DOCKED: ENDBRANCH  13  15
DOCKED: BRANCH  13  17
DOCKED: ATOM     19  C   UNL     1      30.171  18.646 127.949 -0.38 -0.00    +0.000 C 
DOCKED: ATOM     20  C   UNL     1      29.272  19.869 127.712 -0.47 -0.00    +0.000 C 
DOCKED: ENDBRANCH  13  17
DOCKED: ENDBRANCH  12  13
DOCKED: ENDBRANCH   7  12
DOCKED: ENDBRANCH   1   2
DOCKED: BRANCH   1  19
DOCKED: ATOM     21  O   UNL     1      37.394  17.350 123.268 -0.22 -0.00    +0.000 OA
DOCKED: BRANCH  19  21
DOCKED: ATOM     22  O   UNL     1      38.462  15.729 122.021 -0.26 -0.00    +0.000 OA
DOCKED: ATOM     23  C   UNL     1      37.513  16.042 122.794 -0.31 -0.00    +0.000 C 
DOCKED: ATOM     24  N   UNL     1      36.522  15.074 123.161 -0.40 -0.00    +0.000 N 
DOCKED: ATOM     25  H   UNL     1      35.718  15.395 123.632 -0.02 -0.00    +0.000 HD
DOCKED: BRANCH  22  24
DOCKED: ATOM     26  C   UNL     1      36.621  13.666 122.889 -0.47 -0.00    +0.000 A 
DOCKED: ATOM     27  C   UNL     1      36.319  12.747 123.903 -0.53 -0.00    +0.000 A 
DOCKED: ATOM     28  C   UNL     1      36.428  11.373 123.671 -0.60 -0.00    +0.000 A 
DOCKED: ATOM     29  C   UNL     1      36.851  10.889 122.421 -0.54 -0.00    +0.000 A 
DOCKED: ATOM     30  C   UNL     1      37.187  11.814 121.415 -0.46 -0.00    +0.000 A 
DOCKED: ATOM     31  C   UNL     1      37.077  13.188 121.648 -0.42 -0.00    +0.000 A 
DOCKED: ATOM     32  CM  UNL     1      36.747  12.279 122.658 +0.00 -0.00    +0.000 AC
DOCKED: BRANCH  27  30
DOCKED: ATOM     33  C   UNL     1      36.966   9.429 122.191 -0.65 -0.00    +0.000 C 
DOCKED: ATOM     34  N   UNL     1      37.068   8.506 123.282 -0.70 -0.00    +0.000 N 
DOCKED: ATOM     35  O   UNL     1      36.989   8.985 121.010 -2.70 -0.00    +0.000 OA
DOCKED: ATOM     36  H   UNL     1      37.137   8.844 124.205 -0.55 -0.00    +0.000 HD
DOCKED: BRANCH  31  34
DOCKED: ATOM     37  O   UNL     1      37.070   7.171 123.051 -1.98 -0.00    +0.000 OA
DOCKED: ATOM     38  H   UNL     1      37.236   7.006 122.110 -0.17 -0.00    +0.000 HD
DOCKED: ENDBRANCH  31  34
DOCKED: ENDBRANCH  27  30
DOCKED: ENDBRANCH  22  24
DOCKED: ENDBRANCH  19  21
DOCKED: ENDBRANCH   1  19
DOCKED: TORSDOF 10DOCKED: TER
DOCKED: ENDMDL
________________________________________________________________________________


	BEGINNING GENETIC ALGORITHM DOCKING 71 of 100
Run: 71 Seed: 1257575911 832287058 [ Run 71 of 100 GA/GALS ]
Beginning LAMARCKIAN GENETIC ALGORITHM (LGA), with a maximum of 2500000 energy evaluations.

Final-Value: -16.630


	FINAL GENETIC ALGORITHM DOCKED STATE
	_______________________________________________


Detailed state:  trans 38.982 16.942 121.804 quatxyzw -0.088266 0.087522 0.987347 -0.098458 center 1.858 0.218 -0.021 ntor 10 -63.8412 -161.9023 12.8254 -179.3939 -164.7999 172.7604 -68.3520 -111.4089 -109.5560 -177.8308
State:	 38.982  16.942 121.804  -0.089  0.088  0.992 -168.699    -63.84 -161.90   12.83 -179.39 -164.80  172.76  -68.35 -111.41 -109.56 -177.83

DOCKED: MODEL       71
DOCKED: USER    Run = 71
DOCKED: USER    DPF = ligand_dock.biased.dpf
DOCKED: USER  
DOCKED: USER    Estimated Free Energy of Binding    =  -11.47 kcal/mol  [=(1)+(2)+(3)-(4)]
DOCKED: USER    Estimated Inhibition Constant, Ki   =    3.91 nM (nanomolar)  [Temperature = 298.15 K]
DOCKED: USER    
DOCKED: USER    (1) Final Intermolecular Energy     =  -14.45 kcal/mol
DOCKED: USER        vdW + Hbond + desolv Energy     =  -14.45 kcal/mol
DOCKED: USER        Electrostatic Energy            =   +0.00 kcal/mol
DOCKED: USER    (2) Final Total Internal Energy     =   -2.18 kcal/mol
DOCKED: USER    (3) Torsional Free Energy           =   +2.98 kcal/mol
DOCKED: USER    (4) Unbound System's Energy  [=(2)] =   -2.18 kcal/mol
DOCKED: USER    
DOCKED: USER    
DOCKED: USER    NEWDPF move ligand.dum.pdbqt
DOCKED: USER    NEWDPF about 1.858000 0.218000 -0.021000
DOCKED: USER    NEWDPF tran0 38.981728 16.941574 121.804465
DOCKED: USER    NEWDPF quaternion0 -0.088266 0.087522 0.987347 -0.098458
DOCKED: USER    NEWDPF axisangle0 -0.088697 0.087949 0.992168 -168.699217
DOCKED: USER    NEWDPF quat0 -0.088697 0.087949 0.992168 -168.699217
DOCKED: USER    NEWDPF dihe0 -63.84 -161.90 12.83 -179.39 -164.80 172.76 -68.35 -111.41 -109.56 -177.83 
DOCKED: USER  keepresnum = 1 
DOCKED: USER  
DOCKED: REMARK  Name = 
DOCKED: REMARK  12 active torsions:
DOCKED: REMARK  status: ('A' for Active; 'I' for Inactive)
DOCKED: REMARK    1  A    between atoms: C_2  and  O_3
DOCKED: REMARK    2  A    between atoms: O_3  and  C_4
DOCKED: REMARK    3  A    between atoms: C_4  and  C_5
DOCKED: REMARK    4  A    between atoms: C_10  and  C_11
DOCKED: REMARK    5  A    between atoms: C_11  and  N_12
DOCKED: REMARK    6  A    between atoms: N_12  and  C_13
DOCKED: REMARK    7  A    between atoms: N_12  and  C_15
DOCKED: REMARK    8  A    between atoms: C_13  and  C_14
DOCKED: REMARK    9  A    between atoms: C_15  and  C_16
DOCKED: REMARK   10  A    between atoms: N_21  and  C_22
DOCKED: REMARK   11  A    between atoms: C_25  and  C_26
DOCKED: REMARK   12  A    between atoms: N_27  and  O_28
DOCKED: REMARK                            x       y       z     vdW  Elec       q    Type
DOCKED: REMARK                         _______ _______ _______ _____ _____    ______ ____
DOCKED: USER                              x       y       z     vdW  Elec       q    Type
DOCKED: USER                           _______ _______ _______ _____ _____    ______ ____
DOCKED: ROOT
DOCKED: ATOM      1  C   UNL     1      39.036  17.834 123.186 -0.19 -0.00    +0.000 C 
DOCKED: ENDROOT
DOCKED: BRANCH   1   2
DOCKED: ATOM      2  C   UNL     1      40.494  17.587 122.932 -0.20 -0.00    +0.000 A 
DOCKED: ATOM      3  C   UNL     1      41.064  16.343 123.244 -0.28 -0.00    +0.000 A 
DOCKED: ATOM      4  C   UNL     1      42.428  16.119 123.043 -0.39 -0.00    +0.000 A 
DOCKED: ATOM      5  C   UNL     1      43.245  17.142 122.540 -0.31 -0.00    +0.000 A 
DOCKED: ATOM      6  C   UNL     1      44.617  16.926 122.337 -0.28 -0.00    +0.000 A 
DOCKED: ATOM      7  C   UNL     1      45.431  17.955 121.838 -0.18 -0.00    +0.000 A 
DOCKED: ATOM      8  C   UNL     1      44.863  19.204 121.540 -0.08 -0.00    +0.000 A 
DOCKED: ATOM      9  C   UNL     1      43.499  19.428 121.741 -0.08 -0.00    +0.000 A 
DOCKED: ATOM     10  C   UNL     1      42.681  18.404 122.239 -0.15 -0.00    +0.000 A 
DOCKED: ATOM     11  C   UNL     1      41.310  18.620 122.444 -0.11 -0.00    +0.000 A 
DOCKED: ATOM     12  CM  UNL     1      41.870  17.369 122.740 +0.00 -0.00    +0.000 AC
DOCKED: ATOM     13  CM  UNL     1      44.056  18.177 122.039 +0.00 -0.00    +0.000 AC
DOCKED: BRANCH   7  12
DOCKED: ATOM     14  C   UNL     1      46.900  17.726 121.599 -0.17 +0.00    +0.000 C 
DOCKED: BRANCH  12  13
DOCKED: ATOM     15  N   UNL     1      47.631  17.729 122.884 -0.26 -0.00    +0.000 N 
DOCKED: ATOM     16  H   UNL     1      48.542  18.160 122.730 +0.00 -0.00    +0.000 HD
DOCKED: BRANCH  13  15
DOCKED: ATOM     17  C   UNL     1      47.915  16.350 123.349 -0.49 +0.00    +0.000 C 
DOCKED: ATOM     18  C   UNL     1      49.366  15.948 123.089 -0.34 +0.00    +0.000 C 
DOCKED: ENDBRANCH  13  15
DOCKED: BRANCH  13  17
DOCKED: ATOM     19  C   UNL     1      46.972  18.588 123.899 -0.27 -0.00    +0.000 C 
DOCKED: ATOM     20  C   UNL     1      47.536  20.014 123.982 -0.21 -0.00    +0.000 C 
DOCKED: ENDBRANCH  13  17
DOCKED: ENDBRANCH  12  13
DOCKED: ENDBRANCH   7  12
DOCKED: ENDBRANCH   1   2
DOCKED: BRANCH   1  19
DOCKED: ATOM     21  O   UNL     1      38.285  17.420 122.049 -0.13 -0.00    +0.000 OA
DOCKED: BRANCH  19  21
DOCKED: ATOM     22  O   UNL     1      38.652  15.628 120.643 -0.21 -0.00    +0.000 OA
DOCKED: ATOM     23  C   UNL     1      38.125  16.077 121.698 -0.23 -0.00    +0.000 C 
DOCKED: ATOM     24  N   UNL     1      37.319  15.232 122.528 -0.32 -0.00    +0.000 N 
DOCKED: ATOM     25  H   UNL     1      36.799  15.656 123.250 -0.01 -0.00    +0.000 HD
DOCKED: BRANCH  22  24
DOCKED: ATOM     26  C   UNL     1      37.217  13.805 122.379 -0.43 -0.00    +0.000 A 
DOCKED: ATOM     27  C   UNL     1      37.095  13.002 123.521 -0.51 -0.00    +0.000 A 
DOCKED: ATOM     28  C   UNL     1      37.016  11.611 123.405 -0.60 -0.00    +0.000 A 
DOCKED: ATOM     29  C   UNL     1      37.067  10.994 122.144 -0.48 -0.00    +0.000 A 
DOCKED: ATOM     30  C   UNL     1      37.226  11.799 121.001 -0.45 -0.00    +0.000 A 
DOCKED: ATOM     31  C   UNL     1      37.304  13.191 121.118 -0.42 -0.00    +0.000 A 
DOCKED: ATOM     32  CM  UNL     1      37.154  12.400 122.262 +0.00 -0.00    +0.000 AC
DOCKED: BRANCH  27  30
DOCKED: ATOM     33  C   UNL     1      36.987   9.517 122.037 -0.63 -0.00    +0.000 C 
DOCKED: ATOM     34  N   UNL     1      37.016   8.681 123.200 -0.68 -0.00    +0.000 N 
DOCKED: ATOM     35  O   UNL     1      36.906   8.980 120.899 -2.67 -0.00    +0.000 OA
DOCKED: ATOM     36  H   UNL     1      37.165   9.081 124.087 -0.54 -0.00    +0.000 HD
DOCKED: BRANCH  31  34
DOCKED: ATOM     37  O   UNL     1      36.840   7.343 123.084 -2.08 -0.00    +0.000 OA
DOCKED: ATOM     38  H   UNL     1      36.909   7.087 122.151 -0.09 -0.00    +0.000 HD
DOCKED: ENDBRANCH  31  34
DOCKED: ENDBRANCH  27  30
DOCKED: ENDBRANCH  22  24
DOCKED: ENDBRANCH  19  21
DOCKED: ENDBRANCH   1  19
DOCKED: TORSDOF 10DOCKED: TER
DOCKED: ENDMDL
________________________________________________________________________________


	BEGINNING GENETIC ALGORITHM DOCKING 72 of 100
Run: 72 Seed: 1363724287 1549077961 [ Run 72 of 100 GA/GALS ]
Beginning LAMARCKIAN GENETIC ALGORITHM (LGA), with a maximum of 2500000 energy evaluations.

Final-Value: -18.680


	FINAL GENETIC ALGORITHM DOCKED STATE
	_______________________________________________


Detailed state:  trans 37.565 17.039 122.762 quatxyzw 0.938188 -0.023232 -0.290063 0.187422 center 1.858 0.218 -0.021 ntor 10 12.8879 -76.5012 -4.6228 10.7287 -179.9475 -180.0000 -174.7600 -126.5234 -116.9827 -160.2070
State:	 37.565  17.039 122.762   0.955 -0.024 -0.295 158.395     12.89  -76.50   -4.62   10.73 -179.95 -180.00 -174.76 -126.52 -116.98 -160.21

DOCKED: MODEL       72
DOCKED: USER    Run = 72
DOCKED: USER    DPF = ligand_dock.biased.dpf
DOCKED: USER  
DOCKED: USER    Estimated Free Energy of Binding    =  -13.47 kcal/mol  [=(1)+(2)+(3)-(4)]
DOCKED: USER    Estimated Inhibition Constant, Ki   =  134.48 pM (picomolar)  [Temperature = 298.15 K]
DOCKED: USER    
DOCKED: USER    (1) Final Intermolecular Energy     =  -16.45 kcal/mol
DOCKED: USER        vdW + Hbond + desolv Energy     =  -16.45 kcal/mol
DOCKED: USER        Electrostatic Energy            =   +0.00 kcal/mol
DOCKED: USER    (2) Final Total Internal Energy     =   -2.23 kcal/mol
DOCKED: USER    (3) Torsional Free Energy           =   +2.98 kcal/mol
DOCKED: USER    (4) Unbound System's Energy  [=(2)] =   -2.23 kcal/mol
DOCKED: USER    
DOCKED: USER    
DOCKED: USER    NEWDPF move ligand.dum.pdbqt
DOCKED: USER    NEWDPF about 1.858000 0.218000 -0.021000
DOCKED: USER    NEWDPF tran0 37.564970 17.039346 122.762439
DOCKED: USER    NEWDPF quaternion0 0.938188 -0.023232 -0.290063 0.187422
DOCKED: USER    NEWDPF axisangle0 0.955113 -0.023651 -0.295296 158.395227
DOCKED: USER    NEWDPF quat0 0.955113 -0.023651 -0.295296 158.395227
DOCKED: USER    NEWDPF dihe0 12.89 -76.50 -4.62 10.73 -179.95 -180.00 -174.76 -126.52 -116.98 -160.21 
DOCKED: USER  keepresnum = 1 
DOCKED: USER  
DOCKED: REMARK  Name = 
DOCKED: REMARK  12 active torsions:
DOCKED: REMARK  status: ('A' for Active; 'I' for Inactive)
DOCKED: REMARK    1  A    between atoms: C_2  and  O_3
DOCKED: REMARK    2  A    between atoms: O_3  and  C_4
DOCKED: REMARK    3  A    between atoms: C_4  and  C_5
DOCKED: REMARK    4  A    between atoms: C_10  and  C_11
DOCKED: REMARK    5  A    between atoms: C_11  and  N_12
DOCKED: REMARK    6  A    between atoms: N_12  and  C_13
DOCKED: REMARK    7  A    between atoms: N_12  and  C_15
DOCKED: REMARK    8  A    between atoms: C_13  and  C_14
DOCKED: REMARK    9  A    between atoms: C_15  and  C_16
DOCKED: REMARK   10  A    between atoms: N_21  and  C_22
DOCKED: REMARK   11  A    between atoms: C_25  and  C_26
DOCKED: REMARK   12  A    between atoms: N_27  and  O_28
DOCKED: REMARK                            x       y       z     vdW  Elec       q    Type
DOCKED: REMARK                         _______ _______ _______ _____ _____    ______ ____
DOCKED: USER                              x       y       z     vdW  Elec       q    Type
DOCKED: USER                           _______ _______ _______ _____ _____    ______ ____
DOCKED: ROOT
DOCKED: ATOM      1  C   UNL     1      36.731  18.188 121.930 -0.17 -0.00    +0.000 C 
DOCKED: ENDROOT
DOCKED: BRANCH   1   2
DOCKED: ATOM      2  C   UNL     1      35.862  18.005 123.139 -0.23 -0.00    +0.000 A 
DOCKED: ATOM      3  C   UNL     1      35.300  16.751 123.422 -0.36 -0.00    +0.000 A 
DOCKED: ATOM      4  C   UNL     1      34.461  16.583 124.526 -0.46 -0.00    +0.000 A 
DOCKED: ATOM      5  C   UNL     1      34.161  17.673 125.356 -0.36 -0.00    +0.000 A 
DOCKED: ATOM      6  C   UNL     1      33.318  17.514 126.467 -0.30 -0.00    +0.000 A 
DOCKED: ATOM      7  C   UNL     1      33.017  18.610 127.292 -0.23 -0.00    +0.000 A 
DOCKED: ATOM      8  C   UNL     1      33.567  19.867 127.001 -0.16 -0.00    +0.000 A 
DOCKED: ATOM      9  C   UNL     1      34.406  20.034 125.896 -0.17 -0.00    +0.000 A 
DOCKED: ATOM     10  C   UNL     1      34.710  18.945 125.069 -0.24 -0.00    +0.000 A 
DOCKED: ATOM     11  C   UNL     1      35.552  19.103 123.957 -0.20 -0.00    +0.000 A 
DOCKED: ATOM     12  CM  UNL     1      35.008  17.844 124.245 -0.31 -0.00    +0.000 AC
DOCKED: ATOM     13  CM  UNL     1      33.863  18.774 126.180 -0.05 -0.00    +0.000 AC
DOCKED: BRANCH   7  12
DOCKED: ATOM     14  C   UNL     1      32.128  18.443 128.497 -0.24 -0.00    +0.000 C 
DOCKED: BRANCH  12  13
DOCKED: ATOM     15  N   UNL     1      30.741  18.159 128.070 -0.33 -0.00    +0.000 N 
DOCKED: ATOM     16  H   UNL     1      30.774  17.449 127.340 -0.58 -0.00    +0.000 HD
DOCKED: BRANCH  13  15
DOCKED: ATOM     17  C   UNL     1      30.113  19.347 127.445 -0.39 -0.00    +0.000 C 
DOCKED: ATOM     18  C   UNL     1      28.687  19.059 126.980 -0.59 -0.00    +0.000 C 
DOCKED: ENDBRANCH  13  15
DOCKED: BRANCH  13  17
DOCKED: ATOM     19  C   UNL     1      29.937  17.549 129.159 -0.40 -0.00    +0.000 C 
DOCKED: ATOM     20  C   UNL     1      30.754  17.131 130.390 -0.35 -0.00    +0.000 C 
DOCKED: ENDBRANCH  13  17
DOCKED: ENDBRANCH  12  13
DOCKED: ENDBRANCH   7  12
DOCKED: ENDBRANCH   1   2
DOCKED: BRANCH   1  19
DOCKED: ATOM     21  O   UNL     1      37.964  17.503 122.131 -0.13 -0.00    +0.000 OA
DOCKED: BRANCH  19  21
DOCKED: ATOM     22  O   UNL     1      38.650  15.626 123.284 -0.34 -0.00    +0.000 OA
DOCKED: ATOM     23  C   UNL     1      38.040  16.118 122.294 -0.26 -0.00    +0.000 C 
DOCKED: ATOM     24  N   UNL     1      37.454  15.266 121.301 -0.24 -0.00    +0.000 N 
DOCKED: ATOM     25  H   UNL     1      37.128  15.683 120.471 -0.00 -0.00    +0.000 HD
DOCKED: BRANCH  22  24
DOCKED: ATOM     26  C   UNL     1      37.309  13.842 121.437 -0.36 -0.00    +0.000 A 
DOCKED: ATOM     27  C   UNL     1      36.981  13.300 122.687 -0.49 -0.00    +0.000 A 
DOCKED: ATOM     28  C   UNL     1      36.855  11.918 122.851 -0.58 -0.00    +0.000 A 
DOCKED: ATOM     29  C   UNL     1      37.064  11.047 121.768 -0.46 -0.00    +0.000 A 
DOCKED: ATOM     30  C   UNL     1      37.428  11.589 120.523 -0.40 -0.00    +0.000 A 
DOCKED: ATOM     31  C   UNL     1      37.553  12.973 120.359 -0.43 -0.00    +0.000 A 
DOCKED: ATOM     32  CM  UNL     1      37.199  12.445 121.605 +0.00 -0.00    +0.000 AC
DOCKED: BRANCH  27  30
DOCKED: ATOM     33  C   UNL     1      36.932   9.582 121.959 -0.64 -0.00    +0.000 C 
DOCKED: ATOM     34  N   UNL     1      37.069   8.981 123.252 -0.64 -0.00    +0.000 N 
DOCKED: ATOM     35  O   UNL     1      36.707   8.844 120.961 -2.62 -0.00    +0.000 OA
DOCKED: ATOM     36  H   UNL     1      37.328   9.534 124.025 -0.54 -0.00    +0.000 HD
DOCKED: BRANCH  31  34
DOCKED: ATOM     37  O   UNL     1      36.844   7.656 123.417 -2.17 -0.00    +0.000 OA
DOCKED: ATOM     38  H   UNL     1      36.529   7.275 122.583 -0.03 -0.00    +0.000 HD
DOCKED: ENDBRANCH  31  34
DOCKED: ENDBRANCH  27  30
DOCKED: ENDBRANCH  22  24
DOCKED: ENDBRANCH  19  21
DOCKED: ENDBRANCH   1  19
DOCKED: TORSDOF 10DOCKED: TER
DOCKED: ENDMDL
________________________________________________________________________________


	BEGINNING GENETIC ALGORITHM DOCKING 73 of 100
Run: 73 Seed: 968787563 746137261 [ Run 73 of 100 GA/GALS ]
Beginning LAMARCKIAN GENETIC ALGORITHM (LGA), with a maximum of 2500000 energy evaluations.

Final-Value: -18.541


	FINAL GENETIC ALGORITHM DOCKED STATE
	_______________________________________________


Detailed state:  trans 34.595 17.492 123.402 quatxyzw -0.425894 0.486283 -0.031238 -0.762343 center 1.858 0.218 -0.021 ntor 10 -117.6283 55.9963 68.0448 180.0000 163.2428 180.0000 103.1059 90.8291 92.1310 147.0787
State:	 34.595  17.492 123.402  -0.658  0.751 -0.048 -80.658   -117.63   56.00   68.04  180.00  163.24  180.00  103.11   90.83   92.13  147.08

DOCKED: MODEL       73
DOCKED: USER    Run = 73
DOCKED: USER    DPF = ligand_dock.biased.dpf
DOCKED: USER  
DOCKED: USER    Estimated Free Energy of Binding    =  -13.79 kcal/mol  [=(1)+(2)+(3)-(4)]
DOCKED: USER    Estimated Inhibition Constant, Ki   =   77.98 pM (picomolar)  [Temperature = 298.15 K]
DOCKED: USER    
DOCKED: USER    (1) Final Intermolecular Energy     =  -16.77 kcal/mol
DOCKED: USER        vdW + Hbond + desolv Energy     =  -16.77 kcal/mol
DOCKED: USER        Electrostatic Energy            =   +0.00 kcal/mol
DOCKED: USER    (2) Final Total Internal Energy     =   -1.77 kcal/mol
DOCKED: USER    (3) Torsional Free Energy           =   +2.98 kcal/mol
DOCKED: USER    (4) Unbound System's Energy  [=(2)] =   -1.77 kcal/mol
DOCKED: USER    
DOCKED: USER    
DOCKED: USER    NEWDPF move ligand.dum.pdbqt
DOCKED: USER    NEWDPF about 1.858000 0.218000 -0.021000
DOCKED: USER    NEWDPF tran0 34.595447 17.491995 123.401556
DOCKED: USER    NEWDPF quaternion0 -0.425894 0.486283 -0.031238 -0.762343
DOCKED: USER    NEWDPF axisangle0 -0.658083 0.751396 -0.048269 -80.657541
DOCKED: USER    NEWDPF quat0 -0.658083 0.751396 -0.048269 -80.657541
DOCKED: USER    NEWDPF dihe0 -117.63 56.00 68.04 180.00 163.24 180.00 103.11 90.83 92.13 147.08 
DOCKED: USER  keepresnum = 1 
DOCKED: USER  
DOCKED: REMARK  Name = 
DOCKED: REMARK  12 active torsions:
DOCKED: REMARK  status: ('A' for Active; 'I' for Inactive)
DOCKED: REMARK    1  A    between atoms: C_2  and  O_3
DOCKED: REMARK    2  A    between atoms: O_3  and  C_4
DOCKED: REMARK    3  A    between atoms: C_4  and  C_5
DOCKED: REMARK    4  A    between atoms: C_10  and  C_11
DOCKED: REMARK    5  A    between atoms: C_11  and  N_12
DOCKED: REMARK    6  A    between atoms: N_12  and  C_13
DOCKED: REMARK    7  A    between atoms: N_12  and  C_15
DOCKED: REMARK    8  A    between atoms: C_13  and  C_14
DOCKED: REMARK    9  A    between atoms: C_15  and  C_16
DOCKED: REMARK   10  A    between atoms: N_21  and  C_22
DOCKED: REMARK   11  A    between atoms: C_25  and  C_26
DOCKED: REMARK   12  A    between atoms: N_27  and  O_28
DOCKED: REMARK                            x       y       z     vdW  Elec       q    Type
DOCKED: REMARK                         _______ _______ _______ _____ _____    ______ ____
DOCKED: USER                              x       y       z     vdW  Elec       q    Type
DOCKED: USER                           _______ _______ _______ _____ _____    ______ ____
DOCKED: ROOT
DOCKED: ATOM      1  C   UNL     1      35.906  18.075 124.207 -0.27 -0.00    +0.000 C 
DOCKED: ENDROOT
DOCKED: BRANCH   1   2
DOCKED: ATOM      2  C   UNL     1      34.808  18.332 125.197 -0.28 -0.00    +0.000 A 
DOCKED: ATOM      3  C   UNL     1      34.432  19.647 125.509 -0.18 -0.00    +0.000 A 
DOCKED: ATOM      4  C   UNL     1      33.435  19.894 126.456 -0.20 -0.00    +0.000 A 
DOCKED: ATOM      5  C   UNL     1      32.809  18.826 127.116 -0.23 -0.00    +0.000 A 
DOCKED: ATOM      6  C   UNL     1      31.807  19.064 128.069 -0.19 -0.00    +0.000 A 
DOCKED: ATOM      7  C   UNL     1      31.187  17.991 128.730 -0.31 -0.00    +0.000 A 
DOCKED: ATOM      8  C   UNL     1      31.573  16.676 128.429 -0.41 -0.00    +0.000 A 
DOCKED: ATOM      9  C   UNL     1      32.571  16.430 127.482 -0.31 -0.00    +0.000 A 
DOCKED: ATOM     10  C   UNL     1      33.194  17.497 126.819 -0.30 -0.00    +0.000 A 
DOCKED: ATOM     11  C   UNL     1      34.196  17.260 125.866 -0.35 -0.00    +0.000 A 
DOCKED: ATOM     12  CM  UNL     1      33.812  18.576 126.160 -0.06 -0.00    +0.000 AC
DOCKED: ATOM     13  CM  UNL     1      32.190  17.747 127.774 +0.00 -0.00    +0.000 AC
DOCKED: BRANCH   7  12
DOCKED: ATOM     14  C   UNL     1      30.098  18.237 129.741 -0.34 -0.00    +0.000 C 
DOCKED: BRANCH  12  13
DOCKED: ATOM     15  N   UNL     1      30.660  18.884 130.946 -0.22 -0.00    +0.000 N 
DOCKED: ATOM     16  H   UNL     1      30.155  18.531 131.759 -0.58 -0.00    +0.000 HD
DOCKED: BRANCH  13  15
DOCKED: ATOM     17  C   UNL     1      30.427  20.347 130.934 -0.20 -0.00    +0.000 C 
DOCKED: ATOM     18  C   UNL     1      28.973  20.691 130.611 -0.35 -0.00    +0.000 C 
DOCKED: ENDBRANCH  13  15
DOCKED: BRANCH  13  17
DOCKED: ATOM     19  C   UNL     1      32.073  18.496 131.180 -0.14 -0.00    +0.000 C 
DOCKED: ATOM     20  C   UNL     1      33.050  19.679 131.243 -0.06 -0.00    +0.000 C 
DOCKED: ENDBRANCH  13  17
DOCKED: ENDBRANCH  12  13
DOCKED: ENDBRANCH   7  12
DOCKED: ENDBRANCH   1   2
DOCKED: BRANCH   1  19
DOCKED: ATOM     21  O   UNL     1      35.406  17.258 123.154 -0.32 -0.00    +0.000 OA
DOCKED: BRANCH  19  21
DOCKED: ATOM     22  O   UNL     1      34.436  15.238 123.704 -0.63 -0.00    +0.000 OA
DOCKED: ATOM     23  C   UNL     1      35.417  15.862 123.212 -0.42 -0.00    +0.000 C 
DOCKED: ATOM     24  N   UNL     1      36.573  15.153 122.747 -0.35 -0.00    +0.000 N 
DOCKED: ATOM     25  H   UNL     1      37.374  15.679 122.520 -0.00 -0.00    +0.000 HD
DOCKED: BRANCH  22  24
DOCKED: ATOM     26  C   UNL     1      36.641  13.726 122.589 -0.42 -0.00    +0.000 A 
DOCKED: ATOM     27  C   UNL     1      36.128  12.898 123.597 -0.56 -0.00    +0.000 A 
DOCKED: ATOM     28  C   UNL     1      36.201  11.507 123.478 -0.63 -0.00    +0.000 A 
DOCKED: ATOM     29  C   UNL     1      36.798  10.915 122.352 -0.55 -0.00    +0.000 A 
DOCKED: ATOM     30  C   UNL     1      37.345  11.748 121.358 -0.40 -0.00    +0.000 A 
DOCKED: ATOM     31  C   UNL     1      37.270  13.139 121.477 -0.43 -0.00    +0.000 A 
DOCKED: ATOM     32  CM  UNL     1      36.731  12.322 122.475 +0.00 -0.00    +0.000 AC
DOCKED: BRANCH  27  30
DOCKED: ATOM     33  C   UNL     1      36.873   9.438 122.242 -0.67 -0.00    +0.000 C 
DOCKED: ATOM     34  N   UNL     1      37.162   8.618 123.380 -0.64 -0.00    +0.000 N 
DOCKED: ATOM     35  O   UNL     1      36.692   8.888 121.121 -2.62 -0.00    +0.000 OA
DOCKED: ATOM     36  H   UNL     1      37.389   9.037 124.242 -0.60 -0.00    +0.000 HD
DOCKED: BRANCH  31  34
DOCKED: ATOM     37  O   UNL     1      37.125   7.267 123.277 -2.03 -0.00    +0.000 OA
DOCKED: ATOM     38  H   UNL     1      37.851   6.966 122.709 -0.50 -0.00    +0.000 HD
DOCKED: ENDBRANCH  31  34
DOCKED: ENDBRANCH  27  30
DOCKED: ENDBRANCH  22  24
DOCKED: ENDBRANCH  19  21
DOCKED: ENDBRANCH   1  19
DOCKED: TORSDOF 10DOCKED: TER
DOCKED: ENDMDL
________________________________________________________________________________


	BEGINNING GENETIC ALGORITHM DOCKING 74 of 100
Run: 74 Seed: 469751009 206124853 [ Run 74 of 100 GA/GALS ]
Beginning LAMARCKIAN GENETIC ALGORITHM (LGA), with a maximum of 2500000 energy evaluations.

Final-Value: -16.993


	FINAL GENETIC ALGORITHM DOCKED STATE
	_______________________________________________


Detailed state:  trans 37.255 16.851 123.103 quatxyzw -0.587963 -0.454810 -0.515543 -0.426219 center 1.858 0.218 -0.021 ntor 10 -43.6837 -148.0807 10.1169 -28.6472 167.1102 25.1078 -107.5348 96.5443 -162.0177 25.4471
State:	 37.255  16.851 123.103  -0.650 -0.503 -0.570 -129.544    -43.68 -148.08   10.12  -28.65  167.11   25.11 -107.53   96.54 -162.02   25.45

DOCKED: MODEL       74
DOCKED: USER    Run = 74
DOCKED: USER    DPF = ligand_dock.biased.dpf
DOCKED: USER  
DOCKED: USER    Estimated Free Energy of Binding    =  -11.58 kcal/mol  [=(1)+(2)+(3)-(4)]
DOCKED: USER    Estimated Inhibition Constant, Ki   =    3.26 nM (nanomolar)  [Temperature = 298.15 K]
DOCKED: USER    
DOCKED: USER    (1) Final Intermolecular Energy     =  -14.56 kcal/mol
DOCKED: USER        vdW + Hbond + desolv Energy     =  -14.56 kcal/mol
DOCKED: USER        Electrostatic Energy            =   +0.00 kcal/mol
DOCKED: USER    (2) Final Total Internal Energy     =   -2.43 kcal/mol
DOCKED: USER    (3) Torsional Free Energy           =   +2.98 kcal/mol
DOCKED: USER    (4) Unbound System's Energy  [=(2)] =   -2.43 kcal/mol
DOCKED: USER    
DOCKED: USER    
DOCKED: USER    NEWDPF move ligand.dum.pdbqt
DOCKED: USER    NEWDPF about 1.858000 0.218000 -0.021000
DOCKED: USER    NEWDPF tran0 37.255462 16.851375 123.103398
DOCKED: USER    NEWDPF quaternion0 -0.587963 -0.454810 -0.515543 -0.426219
DOCKED: USER    NEWDPF axisangle0 -0.649956 -0.502764 -0.569900 -129.544271
DOCKED: USER    NEWDPF quat0 -0.649956 -0.502764 -0.569900 -129.544271
DOCKED: USER    NEWDPF dihe0 -43.68 -148.08 10.12 -28.65 167.11 25.11 -107.53 96.54 -162.02 25.45 
DOCKED: USER  keepresnum = 1 
DOCKED: USER  
DOCKED: REMARK  Name = 
DOCKED: REMARK  12 active torsions:
DOCKED: REMARK  status: ('A' for Active; 'I' for Inactive)
DOCKED: REMARK    1  A    between atoms: C_2  and  O_3
DOCKED: REMARK    2  A    between atoms: O_3  and  C_4
DOCKED: REMARK    3  A    between atoms: C_4  and  C_5
DOCKED: REMARK    4  A    between atoms: C_10  and  C_11
DOCKED: REMARK    5  A    between atoms: C_11  and  N_12
DOCKED: REMARK    6  A    between atoms: N_12  and  C_13
DOCKED: REMARK    7  A    between atoms: N_12  and  C_15
DOCKED: REMARK    8  A    between atoms: C_13  and  C_14
DOCKED: REMARK    9  A    between atoms: C_15  and  C_16
DOCKED: REMARK   10  A    between atoms: N_21  and  C_22
DOCKED: REMARK   11  A    between atoms: C_25  and  C_26
DOCKED: REMARK   12  A    between atoms: N_27  and  O_28
DOCKED: REMARK                            x       y       z     vdW  Elec       q    Type
DOCKED: REMARK                         _______ _______ _______ _____ _____    ______ ____
DOCKED: USER                              x       y       z     vdW  Elec       q    Type
DOCKED: USER                           _______ _______ _______ _____ _____    ______ ____
DOCKED: ROOT
DOCKED: ATOM      1  C   UNL     1      36.934  18.438 122.811 -0.17 -0.00    +0.000 C 
DOCKED: ENDROOT
DOCKED: BRANCH   1   2
DOCKED: ATOM      2  C   UNL     1      36.638  17.822 121.475 -0.15 -0.00    +0.000 A 
DOCKED: ATOM      3  C   UNL     1      35.393  18.028 120.862 -0.23 -0.00    +0.000 A 
DOCKED: ATOM      4  C   UNL     1      35.099  17.428 119.635 -0.09 -0.00    +0.000 A 
DOCKED: ATOM      5  C   UNL     1      36.044  16.601 119.010 -0.13 -0.00    +0.000 A 
DOCKED: ATOM      6  C   UNL     1      35.757  15.993 117.778 -0.16 -0.00    +0.000 A 
DOCKED: ATOM      7  C   UNL     1      36.705  15.161 117.159 -0.20 -0.00    +0.000 A 
DOCKED: ATOM      8  C   UNL     1      37.945  14.944 117.779 -0.20 -0.00    +0.000 A 
DOCKED: ATOM      9  C   UNL     1      38.238  15.545 119.006 -0.16 -0.00    +0.000 A 
DOCKED: ATOM     10  C   UNL     1      37.296  16.375 119.629 -0.13 -0.00    +0.000 A 
DOCKED: ATOM     11  C   UNL     1      37.582  16.983 120.861 -0.12 -0.00    +0.000 A 
DOCKED: ATOM     12  CM  UNL     1      36.342  17.206 120.246 +0.00 -0.00    +0.000 AC
DOCKED: ATOM     13  CM  UNL     1      36.998  15.769 118.394 +0.00 -0.00    +0.000 AC
DOCKED: BRANCH   7  12
DOCKED: ATOM     14  C   UNL     1      36.412  14.520 115.828 -0.28 -0.00    +0.000 C 
DOCKED: BRANCH  12  13
DOCKED: ATOM     15  N   UNL     1      37.592  14.625 114.943 -0.23 -0.00    +0.000 N 
DOCKED: ATOM     16  H   UNL     1      38.362  15.012 115.487 +0.00 -0.00    +0.000 HD
DOCKED: BRANCH  13  15
DOCKED: ATOM     17  C   UNL     1      37.357  15.586 113.840 -0.15 -0.00    +0.000 C 
DOCKED: ATOM     18  C   UNL     1      38.398  16.704 113.826 -0.10 -0.00    +0.000 C 
DOCKED: ENDBRANCH  13  15
DOCKED: BRANCH  13  17
DOCKED: ATOM     19  C   UNL     1      38.074  13.293 114.497 -0.39 -0.00    +0.000 C 
DOCKED: ATOM     20  C   UNL     1      38.958  12.567 115.521 -0.59 -0.00    +0.000 C 
DOCKED: ENDBRANCH  13  17
DOCKED: ENDBRANCH  12  13
DOCKED: ENDBRANCH   7  12
DOCKED: ENDBRANCH   1   2
DOCKED: BRANCH   1  19
DOCKED: ATOM     21  O   UNL     1      37.119  17.405 123.773 -0.25 -0.00    +0.000 OA
DOCKED: BRANCH  19  21
DOCKED: ATOM     22  O   UNL     1      38.580  15.664 123.376 -0.34 -0.00    +0.000 OA
DOCKED: ATOM     23  C   UNL     1      37.389  16.081 123.417 -0.33 -0.00    +0.000 C 
DOCKED: ATOM     24  N   UNL     1      36.301  15.221 123.057 -0.39 -0.00    +0.000 N 
DOCKED: ATOM     25  H   UNL     1      35.410  15.626 122.950 -0.02 -0.00    +0.000 HD
DOCKED: BRANCH  22  24
DOCKED: ATOM     26  C   UNL     1      36.423  13.804 122.844 -0.43 -0.00    +0.000 A 
DOCKED: ATOM     27  C   UNL     1      35.948  12.918 123.821 -0.53 -0.00    +0.000 A 
DOCKED: ATOM     28  C   UNL     1      36.073  11.537 123.648 -0.61 -0.00    +0.000 A 
DOCKED: ATOM     29  C   UNL     1      36.685  11.013 122.496 -0.59 -0.00    +0.000 A 
DOCKED: ATOM     30  C   UNL     1      37.193  11.903 121.533 -0.46 -0.00    +0.000 A 
DOCKED: ATOM     31  C   UNL     1      37.066  13.285 121.707 -0.42 -0.00    +0.000 A 
DOCKED: ATOM     32  CM  UNL     1      36.565  12.410 122.675 +0.00 -0.00    +0.000 AC
DOCKED: BRANCH  27  30
DOCKED: ATOM     33  C   UNL     1      36.815   9.545 122.329 -0.68 -0.00    +0.000 C 
DOCKED: ATOM     34  N   UNL     1      37.062   8.684 123.447 -0.64 -0.00    +0.000 N 
DOCKED: ATOM     35  O   UNL     1      36.721   9.040 121.177 -2.63 -0.00    +0.000 OA
DOCKED: ATOM     36  H   UNL     1      37.222   9.071 124.338 -0.55 -0.00    +0.000 HD
DOCKED: BRANCH  31  34
DOCKED: ATOM     37  O   UNL     1      37.076   7.339 123.285 -2.12 -0.00    +0.000 OA
DOCKED: ATOM     38  H   UNL     1      37.062   7.128 122.338 -0.10 -0.00    +0.000 HD
DOCKED: ENDBRANCH  31  34
DOCKED: ENDBRANCH  27  30
DOCKED: ENDBRANCH  22  24
DOCKED: ENDBRANCH  19  21
DOCKED: ENDBRANCH   1  19
DOCKED: TORSDOF 10DOCKED: TER
DOCKED: ENDMDL
________________________________________________________________________________


	BEGINNING GENETIC ALGORITHM DOCKING 75 of 100
Run: 75 Seed: 1557777550 537307994 [ Run 75 of 100 GA/GALS ]
Beginning LAMARCKIAN GENETIC ALGORITHM (LGA), with a maximum of 2500000 energy evaluations.

Final-Value: -17.813


	FINAL GENETIC ALGORITHM DOCKED STATE
	_______________________________________________


Detailed state:  trans 35.782 17.067 123.549 quatxyzw 0.164500 0.772833 0.481845 0.378806 center 1.858 0.218 -0.021 ntor 10 -105.9168 -7.9324 19.8479 -35.5629 172.7041 115.2091 93.4898 -103.2524 127.2436 174.8316
State:	 35.782  17.067 123.549   0.178  0.835  0.521 135.481   -105.92   -7.93   19.85  -35.56  172.70  115.21   93.49 -103.25  127.24  174.83

DOCKED: MODEL       75
DOCKED: USER    Run = 75
DOCKED: USER    DPF = ligand_dock.biased.dpf
DOCKED: USER  
DOCKED: USER    Estimated Free Energy of Binding    =  -12.07 kcal/mol  [=(1)+(2)+(3)-(4)]
DOCKED: USER    Estimated Inhibition Constant, Ki   =    1.41 nM (nanomolar)  [Temperature = 298.15 K]
DOCKED: USER    
DOCKED: USER    (1) Final Intermolecular Energy     =  -15.06 kcal/mol
DOCKED: USER        vdW + Hbond + desolv Energy     =  -15.06 kcal/mol
DOCKED: USER        Electrostatic Energy            =   +0.00 kcal/mol
DOCKED: USER    (2) Final Total Internal Energy     =   -2.76 kcal/mol
DOCKED: USER    (3) Torsional Free Energy           =   +2.98 kcal/mol
DOCKED: USER    (4) Unbound System's Energy  [=(2)] =   -2.76 kcal/mol
DOCKED: USER    
DOCKED: USER    
DOCKED: USER    NEWDPF move ligand.dum.pdbqt
DOCKED: USER    NEWDPF about 1.858000 0.218000 -0.021000
DOCKED: USER    NEWDPF tran0 35.781518 17.067314 123.549209
DOCKED: USER    NEWDPF quaternion0 0.164500 0.772833 0.481845 0.378806
DOCKED: USER    NEWDPF axisangle0 0.177746 0.835065 0.520646 135.480550
DOCKED: USER    NEWDPF quat0 0.177746 0.835065 0.520646 135.480550
DOCKED: USER    NEWDPF dihe0 -105.92 -7.93 19.85 -35.56 172.70 115.21 93.49 -103.25 127.24 174.83 
DOCKED: USER  keepresnum = 1 
DOCKED: USER  
DOCKED: REMARK  Name = 
DOCKED: REMARK  12 active torsions:
DOCKED: REMARK  status: ('A' for Active; 'I' for Inactive)
DOCKED: REMARK    1  A    between atoms: C_2  and  O_3
DOCKED: REMARK    2  A    between atoms: O_3  and  C_4
DOCKED: REMARK    3  A    between atoms: C_4  and  C_5
DOCKED: REMARK    4  A    between atoms: C_10  and  C_11
DOCKED: REMARK    5  A    between atoms: C_11  and  N_12
DOCKED: REMARK    6  A    between atoms: N_12  and  C_13
DOCKED: REMARK    7  A    between atoms: N_12  and  C_15
DOCKED: REMARK    8  A    between atoms: C_13  and  C_14
DOCKED: REMARK    9  A    between atoms: C_15  and  C_16
DOCKED: REMARK   10  A    between atoms: N_21  and  C_22
DOCKED: REMARK   11  A    between atoms: C_25  and  C_26
DOCKED: REMARK   12  A    between atoms: N_27  and  O_28
DOCKED: REMARK                            x       y       z     vdW  Elec       q    Type
DOCKED: REMARK                         _______ _______ _______ _____ _____    ______ ____
DOCKED: USER                              x       y       z     vdW  Elec       q    Type
DOCKED: USER                           _______ _______ _______ _____ _____    ______ ____
DOCKED: ROOT
DOCKED: ATOM      1  C   UNL     1      34.837  18.072 122.651 -0.33 -0.00    +0.000 C 
DOCKED: ENDROOT
DOCKED: BRANCH   1   2
DOCKED: ATOM      2  C   UNL     1      35.918  17.722 121.671 -0.21 -0.00    +0.000 A 
DOCKED: ATOM      3  C   UNL     1      37.121  18.444 121.659 -0.11 -0.00    +0.000 A 
DOCKED: ATOM      4  C   UNL     1      38.117  18.146 120.726 -0.06 -0.00    +0.000 A 
DOCKED: ATOM      5  C   UNL     1      37.917  17.130 119.780 -0.08 -0.00    +0.000 A 
DOCKED: ATOM      6  C   UNL     1      38.911  16.825 118.838 -0.08 -0.00    +0.000 A 
DOCKED: ATOM      7  C   UNL     1      38.703  15.810 117.890 -0.13 -0.00    +0.000 A 
DOCKED: ATOM      8  C   UNL     1      37.493  15.098 117.892 -0.20 -0.00    +0.000 A 
DOCKED: ATOM      9  C   UNL     1      36.498  15.396 118.826 -0.18 -0.00    +0.000 A 
DOCKED: ATOM     10  C   UNL     1      36.699  16.409 119.774 -0.15 -0.00    +0.000 A 
DOCKED: ATOM     11  C   UNL     1      35.706  16.715 120.717 -0.05 -0.00    +0.000 A 
DOCKED: ATOM     12  CM  UNL     1      36.913  17.427 120.721 +0.00 -0.00    +0.000 AC
DOCKED: ATOM     13  CM  UNL     1      37.703  16.112 118.833 +0.00 -0.00    +0.000 AC
DOCKED: BRANCH   7  12
DOCKED: ATOM     14  C   UNL     1      39.772  15.464 116.887 -0.21 -0.00    +0.000 C 
DOCKED: BRANCH  12  13
DOCKED: ATOM     15  N   UNL     1      39.184  15.352 115.535 -0.22 -0.00    +0.000 N 
DOCKED: ATOM     16  H   UNL     1      38.183  15.531 115.609 +0.00 -0.00    +0.000 HD
DOCKED: BRANCH  13  15
DOCKED: ATOM     17  C   UNL     1      39.306  13.973 115.005 -0.32 -0.00    +0.000 C 
DOCKED: ATOM     18  C   UNL     1      38.586  12.956 115.890 -0.53 -0.00    +0.000 C 
DOCKED: ENDBRANCH  13  15
DOCKED: BRANCH  13  17
DOCKED: ATOM     19  C   UNL     1      39.691  16.402 114.617 -0.17 -0.00    +0.000 C 
DOCKED: ATOM     20  C   UNL     1      41.215  16.395 114.429 -0.20 -0.00    +0.000 C 
DOCKED: ENDBRANCH  13  17
DOCKED: ENDBRANCH  12  13
DOCKED: ENDBRANCH   7  12
DOCKED: ENDBRANCH   1   2
DOCKED: BRANCH   1  19
DOCKED: ATOM     21  O   UNL     1      34.954  17.235 123.797 -0.38 -0.00    +0.000 OA
DOCKED: BRANCH  19  21
DOCKED: ATOM     22  O   UNL     1      34.005  15.143 124.014 -0.69 -0.00    +0.000 OA
DOCKED: ATOM     23  C   UNL     1      35.012  15.841 123.711 -0.52 -0.00    +0.000 C 
DOCKED: ATOM     24  N   UNL     1      36.240  15.217 123.317 -0.42 -0.00    +0.000 N 
DOCKED: ATOM     25  H   UNL     1      37.042  15.785 123.243 -0.01 -0.00    +0.000 HD
DOCKED: BRANCH  22  24
DOCKED: ATOM     26  C   UNL     1      36.382  13.817 123.021 -0.46 -0.00    +0.000 A 
DOCKED: ATOM     27  C   UNL     1      35.967  12.870 123.967 -0.45 -0.00    +0.000 A 
DOCKED: ATOM     28  C   UNL     1      36.113  11.503 123.714 -0.60 -0.00    +0.000 A 
DOCKED: ATOM     29  C   UNL     1      36.686  11.055 122.511 -0.59 -0.00    +0.000 A 
DOCKED: ATOM     30  C   UNL     1      37.134  12.008 121.578 -0.48 -0.00    +0.000 A 
DOCKED: ATOM     31  C   UNL     1      36.987  13.375 121.832 -0.40 -0.00    +0.000 A 
DOCKED: ATOM     32  CM  UNL     1      36.545  12.438 122.771 +0.00 -0.00    +0.000 AC
DOCKED: BRANCH  27  30
DOCKED: ATOM     33  C   UNL     1      36.838   9.602 122.259 -0.67 -0.00    +0.000 C 
DOCKED: ATOM     34  N   UNL     1      37.032   8.673 123.332 -0.66 -0.00    +0.000 N 
DOCKED: ATOM     35  O   UNL     1      36.811   9.171 121.074 -2.65 -0.00    +0.000 OA
DOCKED: ATOM     36  H   UNL     1      37.140   9.004 124.253 -0.55 -0.00    +0.000 HD
DOCKED: BRANCH  31  34
DOCKED: ATOM     37  O   UNL     1      37.067   7.341 123.086 -2.16 -0.00    +0.000 OA
DOCKED: ATOM     38  H   UNL     1      37.260   7.191 122.147 -0.14 -0.00    +0.000 HD
DOCKED: ENDBRANCH  31  34
DOCKED: ENDBRANCH  27  30
DOCKED: ENDBRANCH  22  24
DOCKED: ENDBRANCH  19  21
DOCKED: ENDBRANCH   1  19
DOCKED: TORSDOF 10DOCKED: TER
DOCKED: ENDMDL
________________________________________________________________________________


	BEGINNING GENETIC ALGORITHM DOCKING 76 of 100
Run: 76 Seed: 500310989 574593058 [ Run 76 of 100 GA/GALS ]
Beginning LAMARCKIAN GENETIC ALGORITHM (LGA), with a maximum of 2500000 energy evaluations.

Final-Value: -17.280


	FINAL GENETIC ALGORITHM DOCKED STATE
	_______________________________________________


Detailed state:  trans 36.106 17.613 121.882 quatxyzw 0.236666 0.385583 0.262614 0.852261 center 1.858 0.218 -0.021 ntor 10 72.9489 -152.1531 18.5430 172.0720 -3.3940 7.7795 -26.9057 -71.0579 87.9295 -111.3642
State:	 36.106  17.613 121.882   0.452  0.737  0.502 63.083     72.95 -152.15   18.54  172.07   -3.39    7.78  -26.91  -71.06   87.93 -111.36

DOCKED: MODEL       76
DOCKED: USER    Run = 76
DOCKED: USER    DPF = ligand_dock.biased.dpf
DOCKED: USER  
DOCKED: USER    Estimated Free Energy of Binding    =  -12.24 kcal/mol  [=(1)+(2)+(3)-(4)]
DOCKED: USER    Estimated Inhibition Constant, Ki   =    1.07 nM (nanomolar)  [Temperature = 298.15 K]
DOCKED: USER    
DOCKED: USER    (1) Final Intermolecular Energy     =  -15.22 kcal/mol
DOCKED: USER        vdW + Hbond + desolv Energy     =  -15.22 kcal/mol
DOCKED: USER        Electrostatic Energy            =   +0.00 kcal/mol
DOCKED: USER    (2) Final Total Internal Energy     =   -2.06 kcal/mol
DOCKED: USER    (3) Torsional Free Energy           =   +2.98 kcal/mol
DOCKED: USER    (4) Unbound System's Energy  [=(2)] =   -2.06 kcal/mol
DOCKED: USER    
DOCKED: USER    
DOCKED: USER    NEWDPF move ligand.dum.pdbqt
DOCKED: USER    NEWDPF about 1.858000 0.218000 -0.021000
DOCKED: USER    NEWDPF tran0 36.106136 17.612710 121.882008
DOCKED: USER    NEWDPF quaternion0 0.236666 0.385583 0.262614 0.852261
DOCKED: USER    NEWDPF axisangle0 0.452416 0.737088 0.502018 63.083051
DOCKED: USER    NEWDPF quat0 0.452416 0.737088 0.502018 63.083051
DOCKED: USER    NEWDPF dihe0 72.95 -152.15 18.54 172.07 -3.39 7.78 -26.91 -71.06 87.93 -111.36 
DOCKED: USER  keepresnum = 1 
DOCKED: USER  
DOCKED: REMARK  Name = 
DOCKED: REMARK  12 active torsions:
DOCKED: REMARK  status: ('A' for Active; 'I' for Inactive)
DOCKED: REMARK    1  A    between atoms: C_2  and  O_3
DOCKED: REMARK    2  A    between atoms: O_3  and  C_4
DOCKED: REMARK    3  A    between atoms: C_4  and  C_5
DOCKED: REMARK    4  A    between atoms: C_10  and  C_11
DOCKED: REMARK    5  A    between atoms: C_11  and  N_12
DOCKED: REMARK    6  A    between atoms: N_12  and  C_13
DOCKED: REMARK    7  A    between atoms: N_12  and  C_15
DOCKED: REMARK    8  A    between atoms: C_13  and  C_14
DOCKED: REMARK    9  A    between atoms: C_15  and  C_16
DOCKED: REMARK   10  A    between atoms: N_21  and  C_22
DOCKED: REMARK   11  A    between atoms: C_25  and  C_26
DOCKED: REMARK   12  A    between atoms: N_27  and  O_28
DOCKED: REMARK                            x       y       z     vdW  Elec       q    Type
DOCKED: REMARK                         _______ _______ _______ _____ _____    ______ ____
DOCKED: USER                              x       y       z     vdW  Elec       q    Type
DOCKED: USER                           _______ _______ _______ _____ _____    ______ ____
DOCKED: ROOT
DOCKED: ATOM      1  C   UNL     1      34.803  18.070 122.777 -0.33 -0.00    +0.000 C 
DOCKED: ENDROOT
DOCKED: BRANCH   1   2
DOCKED: ATOM      2  C   UNL     1      34.222  18.045 121.394 -0.30 -0.00    +0.000 A 
DOCKED: ATOM      3  C   UNL     1      35.062  17.927 120.277 -0.22 -0.00    +0.000 A 
DOCKED: ATOM      4  C   UNL     1      34.530  17.939 118.985 -0.17 -0.00    +0.000 A 
DOCKED: ATOM      5  C   UNL     1      33.149  18.085 118.793 -0.19 -0.00    +0.000 A 
DOCKED: ATOM      6  C   UNL     1      32.606  18.099 117.499 -0.15 -0.00    +0.000 A 
DOCKED: ATOM      7  C   UNL     1      31.222  18.250 117.312 -0.16 -0.00    +0.000 A 
DOCKED: ATOM      8  C   UNL     1      30.383  18.383 118.429 -0.31 -0.00    +0.000 A 
DOCKED: ATOM      9  C   UNL     1      30.916  18.371 119.720 -0.43 -0.00    +0.000 A 
DOCKED: ATOM     10  C   UNL     1      32.296  18.221 119.914 -0.39 -0.00    +0.000 A 
DOCKED: ATOM     11  C   UNL     1      32.840  18.207 121.207 -0.19 -0.00    +0.000 A 
DOCKED: ATOM     12  CM  UNL     1      33.683  18.071 120.095 +0.00 -0.00    +0.000 AC
DOCKED: ATOM     13  CM  UNL     1      31.762  18.235 118.611 +0.00 -0.00    +0.000 AC
DOCKED: BRANCH   7  12
DOCKED: ATOM     14  C   UNL     1      30.629  18.248 115.927 -0.10 -0.00    +0.000 C 
DOCKED: BRANCH  12  13
DOCKED: ATOM     15  N   UNL     1      29.673  17.129 115.785 -0.13 -0.00    +0.000 N 
DOCKED: ATOM     16  H   UNL     1      29.640  16.865 114.801 +0.00 -0.00    +0.000 HD
DOCKED: BRANCH  13  15
DOCKED: ATOM     17  C   UNL     1      28.295  17.546 116.135 -0.18 -0.00    +0.000 C 
DOCKED: ATOM     18  C   UNL     1      27.723  16.719 117.285 -0.30 -0.00    +0.000 C 
DOCKED: ENDBRANCH  13  15
DOCKED: BRANCH  13  17
DOCKED: ATOM     19  C   UNL     1      30.136  15.908 116.491 -0.32 -0.00    +0.000 C 
DOCKED: ATOM     20  C   UNL     1      31.086  15.025 115.669 -0.33 -0.00    +0.000 C 
DOCKED: ENDBRANCH  13  17
DOCKED: ENDBRANCH  12  13
DOCKED: ENDBRANCH   7  12
DOCKED: ENDBRANCH   1   2
DOCKED: BRANCH   1  19
DOCKED: ATOM     21  O   UNL     1      36.100  17.480 122.752 -0.24 -0.00    +0.000 OA
DOCKED: BRANCH  19  21
DOCKED: ATOM     22  O   UNL     1      36.200  15.662 124.169 -0.46 -0.00    +0.000 OA
DOCKED: ATOM     23  C   UNL     1      36.316  16.123 122.999 -0.35 -0.00    +0.000 C 
DOCKED: ATOM     24  N   UNL     1      36.715  15.272 121.916 -0.27 -0.00    +0.000 N 
DOCKED: ATOM     25  H   UNL     1      36.947  15.697 121.059 -0.00 -0.00    +0.000 HD
DOCKED: BRANCH  22  24
DOCKED: ATOM     26  C   UNL     1      36.798  13.839 121.998 -0.32 -0.00    +0.000 A 
DOCKED: ATOM     27  C   UNL     1      37.311  13.117 120.912 -0.42 -0.00    +0.000 A 
DOCKED: ATOM     28  C   UNL     1      37.383  11.722 120.957 -0.43 -0.00    +0.000 A 
DOCKED: ATOM     29  C   UNL     1      36.934  11.018 122.088 -0.51 -0.00    +0.000 A 
DOCKED: ATOM     30  C   UNL     1      36.386  11.742 123.163 -0.62 -0.00    +0.000 A 
DOCKED: ATOM     31  C   UNL     1      36.315  13.138 123.117 -0.53 -0.00    +0.000 A 
DOCKED: ATOM     32  CM  UNL     1      36.854  12.429 122.039 +0.00 -0.00    +0.000 AC
DOCKED: BRANCH  27  30
DOCKED: ATOM     33  C   UNL     1      37.012   9.538 122.119 -0.62 -0.00    +0.000 C 
DOCKED: ATOM     34  N   UNL     1      37.104   8.820 123.356 -0.62 -0.00    +0.000 N 
DOCKED: ATOM     35  O   UNL     1      37.012   8.892 121.036 -2.69 -0.00    +0.000 OA
DOCKED: ATOM     36  H   UNL     1      37.191   9.314 124.204 -0.60 -0.00    +0.000 HD
DOCKED: BRANCH  31  34
DOCKED: ATOM     37  O   UNL     1      37.072   7.466 123.365 -2.18 -0.00    +0.000 OA
DOCKED: ATOM     38  H   UNL     1      37.277   7.132 122.478 -0.17 -0.00    +0.000 HD
DOCKED: ENDBRANCH  31  34
DOCKED: ENDBRANCH  27  30
DOCKED: ENDBRANCH  22  24
DOCKED: ENDBRANCH  19  21
DOCKED: ENDBRANCH   1  19
DOCKED: TORSDOF 10DOCKED: TER
DOCKED: ENDMDL
________________________________________________________________________________


	BEGINNING GENETIC ALGORITHM DOCKING 77 of 100
Run: 77 Seed: 2035252938 1846834971 [ Run 77 of 100 GA/GALS ]
Beginning LAMARCKIAN GENETIC ALGORITHM (LGA), with a maximum of 2500000 energy evaluations.

Final-Value: -16.145


	FINAL GENETIC ALGORITHM DOCKED STATE
	_______________________________________________


Detailed state:  trans 35.831 17.785 123.163 quatxyzw -0.190596 0.412205 -0.248113 -0.855687 center 1.858 0.218 -0.021 ntor 10 -149.5437 55.4997 24.7670 -96.6546 25.6653 106.8786 155.9683 179.8120 66.4542 -171.9915
State:	 35.831  17.785 123.163  -0.368  0.797 -0.479 -62.329   -149.54   55.50   24.77  -96.65   25.67  106.88  155.97  179.81   66.45 -171.99

DOCKED: MODEL       77
DOCKED: USER    Run = 77
DOCKED: USER    DPF = ligand_dock.biased.dpf
DOCKED: USER  
DOCKED: USER    Estimated Free Energy of Binding    =  -11.39 kcal/mol  [=(1)+(2)+(3)-(4)]
DOCKED: USER    Estimated Inhibition Constant, Ki   =    4.48 nM (nanomolar)  [Temperature = 298.15 K]
DOCKED: USER    
DOCKED: USER    (1) Final Intermolecular Energy     =  -14.37 kcal/mol
DOCKED: USER        vdW + Hbond + desolv Energy     =  -14.37 kcal/mol
DOCKED: USER        Electrostatic Energy            =   +0.00 kcal/mol
DOCKED: USER    (2) Final Total Internal Energy     =   -1.77 kcal/mol
DOCKED: USER    (3) Torsional Free Energy           =   +2.98 kcal/mol
DOCKED: USER    (4) Unbound System's Energy  [=(2)] =   -1.77 kcal/mol
DOCKED: USER    
DOCKED: USER    
DOCKED: USER    NEWDPF move ligand.dum.pdbqt
DOCKED: USER    NEWDPF about 1.858000 0.218000 -0.021000
DOCKED: USER    NEWDPF tran0 35.830782 17.784720 123.162560
DOCKED: USER    NEWDPF quaternion0 -0.190596 0.412205 -0.248113 -0.855687
DOCKED: USER    NEWDPF axisangle0 -0.368306 0.796541 -0.479451 -62.328633
DOCKED: USER    NEWDPF quat0 -0.368306 0.796541 -0.479451 -62.328633
DOCKED: USER    NEWDPF dihe0 -149.54 55.50 24.77 -96.65 25.67 106.88 155.97 179.81 66.45 -171.99 
DOCKED: USER  keepresnum = 1 
DOCKED: USER  
DOCKED: REMARK  Name = 
DOCKED: REMARK  12 active torsions:
DOCKED: REMARK  status: ('A' for Active; 'I' for Inactive)
DOCKED: REMARK    1  A    between atoms: C_2  and  O_3
DOCKED: REMARK    2  A    between atoms: O_3  and  C_4
DOCKED: REMARK    3  A    between atoms: C_4  and  C_5
DOCKED: REMARK    4  A    between atoms: C_10  and  C_11
DOCKED: REMARK    5  A    between atoms: C_11  and  N_12
DOCKED: REMARK    6  A    between atoms: N_12  and  C_13
DOCKED: REMARK    7  A    between atoms: N_12  and  C_15
DOCKED: REMARK    8  A    between atoms: C_13  and  C_14
DOCKED: REMARK    9  A    between atoms: C_15  and  C_16
DOCKED: REMARK   10  A    between atoms: N_21  and  C_22
DOCKED: REMARK   11  A    between atoms: C_25  and  C_26
DOCKED: REMARK   12  A    between atoms: N_27  and  O_28
DOCKED: REMARK                            x       y       z     vdW  Elec       q    Type
DOCKED: REMARK                         _______ _______ _______ _____ _____    ______ ____
DOCKED: USER                              x       y       z     vdW  Elec       q    Type
DOCKED: USER                           _______ _______ _______ _____ _____    ______ ____
DOCKED: ROOT
DOCKED: ATOM      1  C   UNL     1      36.770  17.529 124.489 -0.20 -0.00    +0.000 C 
DOCKED: ENDROOT
DOCKED: BRANCH   1   2
DOCKED: ATOM      2  C   UNL     1      35.571  18.196 125.096 -0.24 -0.00    +0.000 A 
DOCKED: ATOM      3  C   UNL     1      35.342  19.565 124.887 -0.18 -0.00    +0.000 A 
DOCKED: ATOM      4  C   UNL     1      34.247  20.199 125.479 -0.04 -0.00    +0.000 A 
DOCKED: ATOM      5  C   UNL     1      33.372  19.474 126.301 -0.22 -0.00    +0.000 A 
DOCKED: ATOM      6  C   UNL     1      32.269  20.103 126.900 -0.22 -0.00    +0.000 A 
DOCKED: ATOM      7  C   UNL     1      31.399  19.373 127.726 -0.23 -0.00    +0.000 A 
DOCKED: ATOM      8  C   UNL     1      31.635  18.007 127.946 -0.22 -0.00    +0.000 A 
DOCKED: ATOM      9  C   UNL     1      32.731  17.374 127.354 -0.27 -0.00    +0.000 A 
DOCKED: ATOM     10  C   UNL     1      33.604  18.097 126.530 -0.30 -0.00    +0.000 A 
DOCKED: ATOM     11  C   UNL     1      34.707  17.469 125.930 -0.25 -0.00    +0.000 A 
DOCKED: ATOM     12  CM  UNL     1      34.474  18.833 125.704 -0.15 -0.00    +0.000 AC
DOCKED: ATOM     13  CM  UNL     1      32.502  18.738 127.126 +0.00 -0.00    +0.000 AC
DOCKED: BRANCH   7  12
DOCKED: ATOM     14  C   UNL     1      30.203  20.036 128.358 -0.29 -0.00    +0.000 C 
DOCKED: BRANCH  12  13
DOCKED: ATOM     15  N   UNL     1      30.003  19.522 129.730 -0.26 -0.00    +0.000 N 
DOCKED: ATOM     16  H   UNL     1      29.825  18.520 129.670 -0.01 -0.00    +0.000 HD
DOCKED: BRANCH  13  15
DOCKED: ATOM     17  C   UNL     1      28.793  20.106 130.355 -0.35 -0.00    +0.000 C 
DOCKED: ATOM     18  C   UNL     1      27.866  20.743 129.320 -0.54 -0.00    +0.000 C 
DOCKED: ENDBRANCH  13  15
DOCKED: BRANCH  13  17
DOCKED: ATOM     19  C   UNL     1      31.231  19.641 130.555 -0.15 -0.00    +0.000 C 
DOCKED: ATOM     20  C   UNL     1      31.051  20.463 131.840 -0.13 -0.00    +0.000 C 
DOCKED: ENDBRANCH  13  17
DOCKED: ENDBRANCH  12  13
DOCKED: ENDBRANCH   7  12
DOCKED: ENDBRANCH   1   2
DOCKED: BRANCH   1  19
DOCKED: ATOM     21  O   UNL     1      36.488  17.201 123.133 -0.25 -0.00    +0.000 OA
DOCKED: BRANCH  19  21
DOCKED: ATOM     22  O   UNL     1      36.116  15.643 121.471 -0.15 -0.00    +0.000 OA
DOCKED: ATOM     23  C   UNL     1      36.393  15.882 122.679 -0.34 -0.00    +0.000 C 
DOCKED: ATOM     24  N   UNL     1      36.571  14.810 123.613 -0.44 -0.00    +0.000 N 
DOCKED: ATOM     25  H   UNL     1      36.628  15.037 124.570 -0.04 -0.00    +0.000 HD
DOCKED: BRANCH  22  24
DOCKED: ATOM     26  C   UNL     1      36.673  13.423 123.247 -0.52 -0.00    +0.000 A 
DOCKED: ATOM     27  C   UNL     1      36.776  13.076 121.893 -0.41 -0.00    +0.000 A 
DOCKED: ATOM     28  C   UNL     1      36.854  11.734 121.508 -0.49 -0.00    +0.000 A 
DOCKED: ATOM     29  C   UNL     1      36.823  10.711 122.471 -0.55 -0.00    +0.000 A 
DOCKED: ATOM     30  C   UNL     1      36.685  11.060 123.827 -0.46 -0.00    +0.000 A 
DOCKED: ATOM     31  C   UNL     1      36.607  12.402 124.211 -0.30 -0.00    +0.000 A 
DOCKED: ATOM     32  CM  UNL     1      36.736  12.067 122.859 +0.00 -0.00    +0.000 AC
DOCKED: BRANCH  27  30
DOCKED: ATOM     33  C   UNL     1      36.903   9.292 122.048 -0.68 -0.00    +0.000 C 
DOCKED: ATOM     34  N   UNL     1      36.811   8.222 122.997 -0.73 -0.00    +0.000 N 
DOCKED: ATOM     35  O   UNL     1      37.071   9.015 120.829 -2.72 -0.00    +0.000 OA
DOCKED: ATOM     36  H   UNL     1      36.766   8.424 123.960 -0.30 -0.00    +0.000 HD
DOCKED: BRANCH  31  34
DOCKED: ATOM     37  O   UNL     1      36.785   6.935 122.576 -1.49 -0.00    +0.000 OA
DOCKED: ATOM     38  H   UNL     1      37.213   6.870 121.708 -0.25 -0.00    +0.000 HD
DOCKED: ENDBRANCH  31  34
DOCKED: ENDBRANCH  27  30
DOCKED: ENDBRANCH  22  24
DOCKED: ENDBRANCH  19  21
DOCKED: ENDBRANCH   1  19
DOCKED: TORSDOF 10DOCKED: TER
DOCKED: ENDMDL
________________________________________________________________________________


	BEGINNING GENETIC ALGORITHM DOCKING 78 of 100
Run: 78 Seed: 394024066 1649342065 [ Run 78 of 100 GA/GALS ]
Beginning LAMARCKIAN GENETIC ALGORITHM (LGA), with a maximum of 2500000 energy evaluations.

Final-Value: -17.527


	FINAL GENETIC ALGORITHM DOCKED STATE
	_______________________________________________


Detailed state:  trans 35.760 17.108 123.782 quatxyzw 0.820456 -0.149422 -0.520873 0.182254 center 1.858 0.218 -0.021 ntor 10 -133.0861 99.5529 18.3148 170.4613 175.1717 -179.9351 70.1630 17.5032 -106.2450 -5.4575
State:	 35.760  17.108 123.782   0.834 -0.152 -0.530 158.998   -133.09   99.55   18.31  170.46  175.17 -179.94   70.16   17.50 -106.25   -5.46

DOCKED: MODEL       78
DOCKED: USER    Run = 78
DOCKED: USER    DPF = ligand_dock.biased.dpf
DOCKED: USER  
DOCKED: USER    Estimated Free Energy of Binding    =  -12.27 kcal/mol  [=(1)+(2)+(3)-(4)]
DOCKED: USER    Estimated Inhibition Constant, Ki   =    1.02 nM (nanomolar)  [Temperature = 298.15 K]
DOCKED: USER    
DOCKED: USER    (1) Final Intermolecular Energy     =  -15.25 kcal/mol
DOCKED: USER        vdW + Hbond + desolv Energy     =  -15.25 kcal/mol
DOCKED: USER        Electrostatic Energy            =   +0.00 kcal/mol
DOCKED: USER    (2) Final Total Internal Energy     =   -2.27 kcal/mol
DOCKED: USER    (3) Torsional Free Energy           =   +2.98 kcal/mol
DOCKED: USER    (4) Unbound System's Energy  [=(2)] =   -2.27 kcal/mol
DOCKED: USER    
DOCKED: USER    
DOCKED: USER    NEWDPF move ligand.dum.pdbqt
DOCKED: USER    NEWDPF about 1.858000 0.218000 -0.021000
DOCKED: USER    NEWDPF tran0 35.760410 17.107787 123.781602
DOCKED: USER    NEWDPF quaternion0 0.820456 -0.149422 -0.520873 0.182254
DOCKED: USER    NEWDPF axisangle0 0.834432 -0.151968 -0.529745 158.997846
DOCKED: USER    NEWDPF quat0 0.834432 -0.151968 -0.529745 158.997846
DOCKED: USER    NEWDPF dihe0 -133.09 99.55 18.31 170.46 175.17 -179.94 70.16 17.50 -106.25 -5.46 
DOCKED: USER  keepresnum = 1 
DOCKED: USER  
DOCKED: REMARK  Name = 
DOCKED: REMARK  12 active torsions:
DOCKED: REMARK  status: ('A' for Active; 'I' for Inactive)
DOCKED: REMARK    1  A    between atoms: C_2  and  O_3
DOCKED: REMARK    2  A    between atoms: O_3  and  C_4
DOCKED: REMARK    3  A    between atoms: C_4  and  C_5
DOCKED: REMARK    4  A    between atoms: C_10  and  C_11
DOCKED: REMARK    5  A    between atoms: C_11  and  N_12
DOCKED: REMARK    6  A    between atoms: N_12  and  C_13
DOCKED: REMARK    7  A    between atoms: N_12  and  C_15
DOCKED: REMARK    8  A    between atoms: C_13  and  C_14
DOCKED: REMARK    9  A    between atoms: C_15  and  C_16
DOCKED: REMARK   10  A    between atoms: N_21  and  C_22
DOCKED: REMARK   11  A    between atoms: C_25  and  C_26
DOCKED: REMARK   12  A    between atoms: N_27  and  O_28
DOCKED: REMARK                            x       y       z     vdW  Elec       q    Type
DOCKED: REMARK                         _______ _______ _______ _____ _____    ______ ____
DOCKED: USER                              x       y       z     vdW  Elec       q    Type
DOCKED: USER                           _______ _______ _______ _____ _____    ______ ____
DOCKED: ROOT
DOCKED: ATOM      1  C   UNL     1      34.782  18.383 123.432 -0.25 -0.00    +0.000 C 
DOCKED: ENDROOT
DOCKED: BRANCH   1   2
DOCKED: ATOM      2  C   UNL     1      34.667  18.319 124.927 -0.30 -0.00    +0.000 A 
DOCKED: ATOM      3  C   UNL     1      35.492  19.117 125.734 -0.19 -0.00    +0.000 A 
DOCKED: ATOM      4  C   UNL     1      35.415  19.035 127.126 -0.14 -0.00    +0.000 A 
DOCKED: ATOM      5  C   UNL     1      34.519  18.142 127.732 -0.17 -0.00    +0.000 A 
DOCKED: ATOM      6  C   UNL     1      34.436  18.052 129.130 -0.15 -0.00    +0.000 A 
DOCKED: ATOM      7  C   UNL     1      33.541  17.153 129.731 -0.22 -0.00    +0.000 A 
DOCKED: ATOM      8  C   UNL     1      32.725  16.344 128.924 -0.27 -0.00    +0.000 A 
DOCKED: ATOM      9  C   UNL     1      32.803  16.426 127.532 -0.37 -0.00    +0.000 A 
DOCKED: ATOM     10  C   UNL     1      33.695  17.322 126.926 -0.34 -0.00    +0.000 A 
DOCKED: ATOM     11  C   UNL     1      33.780  17.412 125.528 -0.34 -0.00    +0.000 A 
DOCKED: ATOM     12  CM  UNL     1      34.594  18.224 126.329 -0.13 -0.00    +0.000 AC
DOCKED: ATOM     13  CM  UNL     1      33.620  17.239 128.329 +0.00 -0.00    +0.000 AC
DOCKED: BRANCH   7  12
DOCKED: ATOM     14  C   UNL     1      33.431  17.064 131.231 -0.23 -0.00    +0.000 C 
DOCKED: BRANCH  12  13
DOCKED: ATOM     15  N   UNL     1      34.669  16.485 131.797 -0.18 -0.00    +0.000 N 
DOCKED: ATOM     16  H   UNL     1      34.435  16.048 132.688 -0.00 -0.00    +0.000 HD
DOCKED: BRANCH  13  15
DOCKED: ATOM     17  C   UNL     1      35.661  17.539 132.118 -0.09 -0.00    +0.000 C 
DOCKED: ATOM     18  C   UNL     1      34.991  18.837 132.565 -0.03 -0.00    +0.000 C 
DOCKED: ENDBRANCH  13  15
DOCKED: BRANCH  13  17
DOCKED: ATOM     19  C   UNL     1      35.203  15.382 130.961 -0.24 -0.00    +0.000 C 
DOCKED: ATOM     20  C   UNL     1      36.640  14.966 131.307 -0.40 -0.00    +0.000 C 
DOCKED: ENDBRANCH  13  17
DOCKED: ENDBRANCH  12  13
DOCKED: ENDBRANCH   7  12
DOCKED: ENDBRANCH   1   2
DOCKED: BRANCH   1  19
DOCKED: ATOM     21  O   UNL     1      35.825  17.514 123.004 -0.26 -0.00    +0.000 OA
DOCKED: BRANCH  19  21
DOCKED: ATOM     22  O   UNL     1      34.551  15.592 123.077 -0.47 -0.00    +0.000 OA
DOCKED: ATOM     23  C   UNL     1      35.694  16.123 122.997 -0.38 -0.00    +0.000 C 
DOCKED: ATOM     24  N   UNL     1      36.874  15.312 122.943 -0.36 -0.00    +0.000 N 
DOCKED: ATOM     25  H   UNL     1      37.745  15.760 123.041 -0.01 -0.00    +0.000 HD
DOCKED: BRANCH  22  24
DOCKED: ATOM     26  C   UNL     1      36.871  13.887 122.754 -0.45 -0.00    +0.000 A 
DOCKED: ATOM     27  C   UNL     1      36.551  13.051 123.833 -0.50 -0.00    +0.000 A 
DOCKED: ATOM     28  C   UNL     1      36.562  11.662 123.682 -0.62 -0.00    +0.000 A 
DOCKED: ATOM     29  C   UNL     1      36.903  11.078 122.450 -0.54 -0.00    +0.000 A 
DOCKED: ATOM     30  C   UNL     1      37.258  11.917 121.378 -0.45 -0.00    +0.000 A 
DOCKED: ATOM     31  C   UNL     1      37.247  13.307 121.529 -0.41 -0.00    +0.000 A 
DOCKED: ATOM     32  CM  UNL     1      36.899  12.483 122.605 +0.00 -0.00    +0.000 AC
DOCKED: BRANCH  27  30
DOCKED: ATOM     33  C   UNL     1      36.914   9.602 122.306 -0.65 -0.00    +0.000 C 
DOCKED: ATOM     34  N   UNL     1      37.164   8.744 123.426 -0.61 -0.00    +0.000 N 
DOCKED: ATOM     35  O   UNL     1      36.714   9.087 121.172 -2.63 -0.00    +0.000 OA
DOCKED: ATOM     36  H   UNL     1      37.405   9.133 124.298 -0.61 -0.00    +0.000 HD
DOCKED: BRANCH  31  34
DOCKED: ATOM     37  O   UNL     1      37.069   7.399 123.291 -2.16 -0.00    +0.000 OA
DOCKED: ATOM     38  H   UNL     1      37.114   7.165 122.352 -0.11 -0.00    +0.000 HD
DOCKED: ENDBRANCH  31  34
DOCKED: ENDBRANCH  27  30
DOCKED: ENDBRANCH  22  24
DOCKED: ENDBRANCH  19  21
DOCKED: ENDBRANCH   1  19
DOCKED: TORSDOF 10DOCKED: TER
DOCKED: ENDMDL
________________________________________________________________________________


	BEGINNING GENETIC ALGORITHM DOCKING 79 of 100
Run: 79 Seed: 541873483 35596547 [ Run 79 of 100 GA/GALS ]
Beginning LAMARCKIAN GENETIC ALGORITHM (LGA), with a maximum of 2500000 energy evaluations.

Final-Value: -17.166


	FINAL GENETIC ALGORITHM DOCKED STATE
	_______________________________________________


Detailed state:  trans 37.024 16.932 121.986 quatxyzw -0.793008 -0.242481 -0.522698 -0.197808 center 1.858 0.218 -0.021 ntor 10 -108.7057 116.1781 -165.4394 -77.6461 -15.4733 148.8805 35.8643 112.2339 -114.7586 -7.9874
State:	 37.024  16.932 121.986  -0.809 -0.247 -0.533 -157.182   -108.71  116.18 -165.44  -77.65  -15.47  148.88   35.86  112.23 -114.76   -7.99

DOCKED: MODEL       79
DOCKED: USER    Run = 79
DOCKED: USER    DPF = ligand_dock.biased.dpf
DOCKED: USER  
DOCKED: USER    Estimated Free Energy of Binding    =  -12.05 kcal/mol  [=(1)+(2)+(3)-(4)]
DOCKED: USER    Estimated Inhibition Constant, Ki   =    1.48 nM (nanomolar)  [Temperature = 298.15 K]
DOCKED: USER    
DOCKED: USER    (1) Final Intermolecular Energy     =  -15.03 kcal/mol
DOCKED: USER        vdW + Hbond + desolv Energy     =  -15.03 kcal/mol
DOCKED: USER        Electrostatic Energy            =   +0.00 kcal/mol
DOCKED: USER    (2) Final Total Internal Energy     =   -2.14 kcal/mol
DOCKED: USER    (3) Torsional Free Energy           =   +2.98 kcal/mol
DOCKED: USER    (4) Unbound System's Energy  [=(2)] =   -2.14 kcal/mol
DOCKED: USER    
DOCKED: USER    
DOCKED: USER    NEWDPF move ligand.dum.pdbqt
DOCKED: USER    NEWDPF about 1.858000 0.218000 -0.021000
DOCKED: USER    NEWDPF tran0 37.024026 16.931507 121.986151
DOCKED: USER    NEWDPF quaternion0 -0.793008 -0.242481 -0.522698 -0.197808
DOCKED: USER    NEWDPF axisangle0 -0.808993 -0.247368 -0.533234 -157.182375
DOCKED: USER    NEWDPF quat0 -0.808993 -0.247368 -0.533234 -157.182375
DOCKED: USER    NEWDPF dihe0 -108.71 116.18 -165.44 -77.65 -15.47 148.88 35.86 112.23 -114.76 -7.99 
DOCKED: USER  keepresnum = 1 
DOCKED: USER  
DOCKED: REMARK  Name = 
DOCKED: REMARK  12 active torsions:
DOCKED: REMARK  status: ('A' for Active; 'I' for Inactive)
DOCKED: REMARK    1  A    between atoms: C_2  and  O_3
DOCKED: REMARK    2  A    between atoms: O_3  and  C_4
DOCKED: REMARK    3  A    between atoms: C_4  and  C_5
DOCKED: REMARK    4  A    between atoms: C_10  and  C_11
DOCKED: REMARK    5  A    between atoms: C_11  and  N_12
DOCKED: REMARK    6  A    between atoms: N_12  and  C_13
DOCKED: REMARK    7  A    between atoms: N_12  and  C_15
DOCKED: REMARK    8  A    between atoms: C_13  and  C_14
DOCKED: REMARK    9  A    between atoms: C_15  and  C_16
DOCKED: REMARK   10  A    between atoms: N_21  and  C_22
DOCKED: REMARK   11  A    between atoms: C_25  and  C_26
DOCKED: REMARK   12  A    between atoms: N_27  and  O_28
DOCKED: REMARK                            x       y       z     vdW  Elec       q    Type
DOCKED: REMARK                         _______ _______ _______ _____ _____    ______ ____
DOCKED: USER                              x       y       z     vdW  Elec       q    Type
DOCKED: USER                           _______ _______ _______ _____ _____    ______ ____
DOCKED: ROOT
DOCKED: ATOM      1  C   UNL     1      37.682  18.284 121.318 -0.10 -0.00    +0.000 C 
DOCKED: ENDROOT
DOCKED: BRANCH   1   2
DOCKED: ATOM      2  C   UNL     1      36.764  17.824 120.222 -0.11 -0.00    +0.000 A 
DOCKED: ATOM      3  C   UNL     1      35.451  18.311 120.151 -0.20 -0.00    +0.000 A 
DOCKED: ATOM      4  C   UNL     1      34.581  17.860 119.155 -0.16 -0.00    +0.000 A 
DOCKED: ATOM      5  C   UNL     1      35.010  16.904 118.224 -0.08 -0.00    +0.000 A 
DOCKED: ATOM      6  C   UNL     1      34.142  16.444 117.221 -0.11 -0.00    +0.000 A 
DOCKED: ATOM      7  C   UNL     1      34.576  15.483 116.294 -0.19 -0.00    +0.000 A 
DOCKED: ATOM      8  C   UNL     1      35.886  14.984 116.374 -0.22 -0.00    +0.000 A 
DOCKED: ATOM      9  C   UNL     1      36.755  15.436 117.370 -0.18 -0.00    +0.000 A 
DOCKED: ATOM     10  C   UNL     1      36.328  16.395 118.299 -0.14 -0.00    +0.000 A 
DOCKED: ATOM     11  C   UNL     1      37.194  16.855 119.302 -0.11 -0.00    +0.000 A 
DOCKED: ATOM     12  CM  UNL     1      35.888  17.358 119.226 +0.00 -0.00    +0.000 AC
DOCKED: ATOM     13  CM  UNL     1      35.450  15.941 117.297 +0.00 -0.00    +0.000 AC
DOCKED: BRANCH   7  12
DOCKED: ATOM     14  C   UNL     1      33.658  14.998 115.203 -0.22 -0.00    +0.000 C 
DOCKED: BRANCH  12  13
DOCKED: ATOM     15  N   UNL     1      33.067  13.695 115.577 -0.34 -0.00    +0.000 N 
DOCKED: ATOM     16  H   UNL     1      33.801  13.121 115.989 -0.02 -0.00    +0.000 HD
DOCKED: BRANCH  13  15
DOCKED: ATOM     17  C   UNL     1      32.599  12.950 114.384 -0.39 -0.00    +0.000 C 
DOCKED: ATOM     18  C   UNL     1      33.726  12.719 113.378 -0.36 -0.00    +0.000 C 
DOCKED: ENDBRANCH  13  15
DOCKED: BRANCH  13  17
DOCKED: ATOM     19  C   UNL     1      32.046  13.832 116.646 -0.45 -0.00    +0.000 C 
DOCKED: ATOM     20  C   UNL     1      31.450  12.500 117.124 -0.59 -0.00    +0.000 C 
DOCKED: ENDBRANCH  13  17
DOCKED: ENDBRANCH  12  13
DOCKED: ENDBRANCH   7  12
DOCKED: ENDBRANCH   1   2
DOCKED: BRANCH   1  19
DOCKED: ATOM     21  O   UNL     1      37.419  17.529 122.497 -0.16 -0.00    +0.000 OA
DOCKED: BRANCH  19  21
DOCKED: ATOM     22  O   UNL     1      38.576  15.709 123.316 -0.35 -0.00    +0.000 OA
DOCKED: ATOM     23  C   UNL     1      37.652  16.154 122.580 -0.28 -0.00    +0.000 C 
DOCKED: ATOM     24  N   UNL     1      36.857  15.263 121.788 -0.26 -0.00    +0.000 N 
DOCKED: ATOM     25  H   UNL     1      36.257  15.658 121.113 -0.01 -0.00    +0.000 HD
DOCKED: BRANCH  22  24
DOCKED: ATOM     26  C   UNL     1      36.875  13.831 121.912 -0.32 -0.00    +0.000 A 
DOCKED: ATOM     27  C   UNL     1      37.407  13.058 120.871 -0.43 -0.00    +0.000 A 
DOCKED: ATOM     28  C   UNL     1      37.417  11.663 120.957 -0.41 -0.00    +0.000 A 
DOCKED: ATOM     29  C   UNL     1      36.886  11.011 122.083 -0.52 -0.00    +0.000 A 
DOCKED: ATOM     30  C   UNL     1      36.320  11.787 123.110 -0.62 -0.00    +0.000 A 
DOCKED: ATOM     31  C   UNL     1      36.311  13.183 123.024 -0.51 -0.00    +0.000 A 
DOCKED: ATOM     32  CM  UNL     1      36.869  12.422 121.992 +0.00 -0.00    +0.000 AC
DOCKED: BRANCH  27  30
DOCKED: ATOM     33  C   UNL     1      36.900   9.530 122.158 -0.65 -0.00    +0.000 C 
DOCKED: ATOM     34  N   UNL     1      37.160   8.846 123.390 -0.59 -0.00    +0.000 N 
DOCKED: ATOM     35  O   UNL     1      36.693   8.853 121.114 -2.62 -0.00    +0.000 OA
DOCKED: ATOM     36  H   UNL     1      37.406   9.360 124.193 -0.62 -0.00    +0.000 HD
DOCKED: BRANCH  31  34
DOCKED: ATOM     37  O   UNL     1      37.067   7.496 123.455 -2.18 -0.00    +0.000 OA
DOCKED: ATOM     38  H   UNL     1      37.044   7.218 124.384 -0.54 -0.00    +0.000 HD
DOCKED: ENDBRANCH  31  34
DOCKED: ENDBRANCH  27  30
DOCKED: ENDBRANCH  22  24
DOCKED: ENDBRANCH  19  21
DOCKED: ENDBRANCH   1  19
DOCKED: TORSDOF 10DOCKED: TER
DOCKED: ENDMDL
________________________________________________________________________________


	BEGINNING GENETIC ALGORITHM DOCKING 80 of 100
Run: 80 Seed: 579093614 1224655379 [ Run 80 of 100 GA/GALS ]
Beginning LAMARCKIAN GENETIC ALGORITHM (LGA), with a maximum of 2500000 energy evaluations.

Final-Value: -18.776


	FINAL GENETIC ALGORITHM DOCKED STATE
	_______________________________________________


Detailed state:  trans 37.277 17.006 123.644 quatxyzw -0.951765 0.036707 0.280852 -0.117972 center 1.858 0.218 -0.021 ntor 10 -156.1094 115.6851 54.7783 -180.0000 -179.6979 175.7862 -131.8956 -179.7252 -90.3078 -160.9601
State:	 37.277  17.006 123.644  -0.958  0.037  0.283 -166.450   -156.11  115.69   54.78 -180.00 -179.70  175.79 -131.90 -179.73  -90.31 -160.96

DOCKED: MODEL       80
DOCKED: USER    Run = 80
DOCKED: USER    DPF = ligand_dock.biased.dpf
DOCKED: USER  
DOCKED: USER    Estimated Free Energy of Binding    =  -13.82 kcal/mol  [=(1)+(2)+(3)-(4)]
DOCKED: USER    Estimated Inhibition Constant, Ki   =   74.25 pM (picomolar)  [Temperature = 298.15 K]
DOCKED: USER    
DOCKED: USER    (1) Final Intermolecular Energy     =  -16.80 kcal/mol
DOCKED: USER        vdW + Hbond + desolv Energy     =  -16.80 kcal/mol
DOCKED: USER        Electrostatic Energy            =   +0.00 kcal/mol
DOCKED: USER    (2) Final Total Internal Energy     =   -1.97 kcal/mol
DOCKED: USER    (3) Torsional Free Energy           =   +2.98 kcal/mol
DOCKED: USER    (4) Unbound System's Energy  [=(2)] =   -1.97 kcal/mol
DOCKED: USER    
DOCKED: USER    
DOCKED: USER    NEWDPF move ligand.dum.pdbqt
DOCKED: USER    NEWDPF about 1.858000 0.218000 -0.021000
DOCKED: USER    NEWDPF tran0 37.277085 17.006275 123.644496
DOCKED: USER    NEWDPF quaternion0 -0.951765 0.036707 0.280852 -0.117972
DOCKED: USER    NEWDPF axisangle0 -0.958458 0.036965 0.282827 -166.449800
DOCKED: USER    NEWDPF quat0 -0.958458 0.036965 0.282827 -166.449800
DOCKED: USER    NEWDPF dihe0 -156.11 115.69 54.78 -180.00 -179.70 175.79 -131.90 -179.73 -90.31 -160.96 
DOCKED: USER  keepresnum = 1 
DOCKED: USER  
DOCKED: REMARK  Name = 
DOCKED: REMARK  12 active torsions:
DOCKED: REMARK  status: ('A' for Active; 'I' for Inactive)
DOCKED: REMARK    1  A    between atoms: C_2  and  O_3
DOCKED: REMARK    2  A    between atoms: O_3  and  C_4
DOCKED: REMARK    3  A    between atoms: C_4  and  C_5
DOCKED: REMARK    4  A    between atoms: C_10  and  C_11
DOCKED: REMARK    5  A    between atoms: C_11  and  N_12
DOCKED: REMARK    6  A    between atoms: N_12  and  C_13
DOCKED: REMARK    7  A    between atoms: N_12  and  C_15
DOCKED: REMARK    8  A    between atoms: C_13  and  C_14
DOCKED: REMARK    9  A    between atoms: C_15  and  C_16
DOCKED: REMARK   10  A    between atoms: N_21  and  C_22
DOCKED: REMARK   11  A    between atoms: C_25  and  C_26
DOCKED: REMARK   12  A    between atoms: N_27  and  O_28
DOCKED: REMARK                            x       y       z     vdW  Elec       q    Type
DOCKED: REMARK                         _______ _______ _______ _____ _____    ______ ____
DOCKED: USER                              x       y       z     vdW  Elec       q    Type
DOCKED: USER                           _______ _______ _______ _____ _____    ______ ____
DOCKED: ROOT
DOCKED: ATOM      1  C   UNL     1      36.446  18.013 122.642 -0.21 -0.00    +0.000 C 
DOCKED: ENDROOT
DOCKED: BRANCH   1   2
DOCKED: ATOM      2  C   UNL     1      35.557  17.993 123.852 -0.26 -0.00    +0.000 A 
DOCKED: ATOM      3  C   UNL     1      34.991  16.788 124.293 -0.40 -0.00    +0.000 A 
DOCKED: ATOM      4  C   UNL     1      34.135  16.769 125.396 -0.41 -0.00    +0.000 A 
DOCKED: ATOM      5  C   UNL     1      33.821  17.960 126.066 -0.33 -0.00    +0.000 A 
DOCKED: ATOM      6  C   UNL     1      32.960  17.951 127.175 -0.28 -0.00    +0.000 A 
DOCKED: ATOM      7  C   UNL     1      32.645  19.148 127.838 -0.17 -0.00    +0.000 A 
DOCKED: ATOM      8  C   UNL     1      33.200  20.356 127.388 -0.13 -0.00    +0.000 A 
DOCKED: ATOM      9  C   UNL     1      34.057  20.374 126.285 -0.16 -0.00    +0.000 A 
DOCKED: ATOM     10  C   UNL     1      34.374  19.183 125.617 -0.23 -0.00    +0.000 A 
DOCKED: ATOM     11  C   UNL     1      35.234  19.191 124.508 -0.20 -0.00    +0.000 A 
DOCKED: ATOM     12  CM  UNL     1      34.686  17.981 124.955 -0.45 -0.00    +0.000 AC
DOCKED: ATOM     13  CM  UNL     1      33.509  19.162 126.728 -0.00 -0.00    +0.000 AC
DOCKED: BRANCH   7  12
DOCKED: ATOM     14  C   UNL     1      31.738  19.144 129.040 -0.17 -0.00    +0.000 C 
DOCKED: BRANCH  12  13
DOCKED: ATOM     15  N   UNL     1      30.341  18.901 128.622 -0.31 -0.00    +0.000 N 
DOCKED: ATOM     16  H   UNL     1      29.729  19.444 129.230 +0.00 -0.00    +0.000 HD
DOCKED: BRANCH  13  15
DOCKED: ATOM     17  C   UNL     1      29.953  17.485 128.825 -0.45 -0.00    +0.000 C 
DOCKED: ATOM     18  C   UNL     1      30.999  16.718 129.632 -0.42 -0.00    +0.000 C 
DOCKED: ENDBRANCH  13  15
DOCKED: BRANCH  13  17
DOCKED: ATOM     19  C   UNL     1      30.070  19.415 127.255 -0.39 -0.00    +0.000 C 
DOCKED: ATOM     20  C   UNL     1      28.616  19.242 126.793 -0.63 -0.00    +0.000 C 
DOCKED: ENDBRANCH  13  17
DOCKED: ENDBRANCH  12  13
DOCKED: ENDBRANCH   7  12
DOCKED: ENDBRANCH   1   2
DOCKED: BRANCH   1  19
DOCKED: ATOM     21  O   UNL     1      37.682  17.380 122.959 -0.19 -0.00    +0.000 OA
DOCKED: BRANCH  19  21
DOCKED: ATOM     22  O   UNL     1      39.013  15.499 123.073 -0.37 -0.00    +0.000 OA
DOCKED: ATOM     23  C   UNL     1      37.893  16.009 122.793 -0.30 -0.00    +0.000 C 
DOCKED: ATOM     24  N   UNL     1      36.836  15.201 122.259 -0.30 -0.00    +0.000 N 
DOCKED: ATOM     25  H   UNL     1      36.039  15.660 121.908 -0.01 -0.00    +0.000 HD
DOCKED: BRANCH  22  24
DOCKED: ATOM     26  C   UNL     1      36.861  13.765 122.204 -0.38 -0.00    +0.000 A 
DOCKED: ATOM     27  C   UNL     1      36.544  13.027 123.353 -0.56 -0.00    +0.000 A 
DOCKED: ATOM     28  C   UNL     1      36.582  11.630 123.332 -0.62 -0.00    +0.000 A 
DOCKED: ATOM     29  C   UNL     1      36.947  10.941 122.163 -0.50 -0.00    +0.000 A 
DOCKED: ATOM     30  C   UNL     1      37.299  11.683 121.021 -0.42 -0.00    +0.000 A 
DOCKED: ATOM     31  C   UNL     1      37.261  13.081 121.042 -0.42 -0.00    +0.000 A 
DOCKED: ATOM     32  CM  UNL     1      36.916  12.354 122.186 +0.00 -0.00    +0.000 AC
DOCKED: BRANCH  27  30
DOCKED: ATOM     33  C   UNL     1      36.987   9.458 122.157 -0.64 -0.00    +0.000 C 
DOCKED: ATOM     34  N   UNL     1      37.131   8.710 123.370 -0.63 -0.00    +0.000 N 
DOCKED: ATOM     35  O   UNL     1      36.906   8.839 121.061 -2.66 -0.00    +0.000 OA
DOCKED: ATOM     36  H   UNL     1      37.281   9.181 124.222 -0.60 -0.00    +0.000 HD
DOCKED: BRANCH  31  34
DOCKED: ATOM     37  O   UNL     1      37.063   7.357 123.351 -2.12 -0.00    +0.000 OA
DOCKED: ATOM     38  H   UNL     1      37.708   7.010 122.715 -0.44 -0.00    +0.000 HD
DOCKED: ENDBRANCH  31  34
DOCKED: ENDBRANCH  27  30
DOCKED: ENDBRANCH  22  24
DOCKED: ENDBRANCH  19  21
DOCKED: ENDBRANCH   1  19
DOCKED: TORSDOF 10DOCKED: TER
DOCKED: ENDMDL
________________________________________________________________________________


	BEGINNING GENETIC ALGORITHM DOCKING 81 of 100
Run: 81 Seed: 1834849514 1006573860 [ Run 81 of 100 GA/GALS ]
Beginning LAMARCKIAN GENETIC ALGORITHM (LGA), with a maximum of 2500000 energy evaluations.

Final-Value: -17.913


	FINAL GENETIC ALGORITHM DOCKED STATE
	_______________________________________________


Detailed state:  trans 35.144 16.461 122.790 quatxyzw -0.490656 -0.264762 -0.822332 -0.113703 center 1.858 0.218 -0.021 ntor 10 139.2683 101.2210 16.6144 10.7063 -162.3070 -177.0057 78.2541 -175.7688 -120.5622 -24.0719
State:	 35.144  16.461 122.790  -0.494 -0.266 -0.828 -166.942    139.27  101.22   16.61   10.71 -162.31 -177.01   78.25 -175.77 -120.56  -24.07

DOCKED: MODEL       81
DOCKED: USER    Run = 81
DOCKED: USER    DPF = ligand_dock.biased.dpf
DOCKED: USER  
DOCKED: USER    Estimated Free Energy of Binding    =  -12.27 kcal/mol  [=(1)+(2)+(3)-(4)]
DOCKED: USER    Estimated Inhibition Constant, Ki   =    1.02 nM (nanomolar)  [Temperature = 298.15 K]
DOCKED: USER    
DOCKED: USER    (1) Final Intermolecular Energy     =  -15.25 kcal/mol
DOCKED: USER        vdW + Hbond + desolv Energy     =  -15.25 kcal/mol
DOCKED: USER        Electrostatic Energy            =   +0.00 kcal/mol
DOCKED: USER    (2) Final Total Internal Energy     =   -2.66 kcal/mol
DOCKED: USER    (3) Torsional Free Energy           =   +2.98 kcal/mol
DOCKED: USER    (4) Unbound System's Energy  [=(2)] =   -2.66 kcal/mol
DOCKED: USER    
DOCKED: USER    
DOCKED: USER    NEWDPF move ligand.dum.pdbqt
DOCKED: USER    NEWDPF about 1.858000 0.218000 -0.021000
DOCKED: USER    NEWDPF tran0 35.144298 16.461393 122.789811
DOCKED: USER    NEWDPF quaternion0 -0.490656 -0.264762 -0.822332 -0.113703
DOCKED: USER    NEWDPF axisangle0 -0.493858 -0.266490 -0.827700 -166.942405
DOCKED: USER    NEWDPF quat0 -0.493858 -0.266490 -0.827700 -166.942405
DOCKED: USER    NEWDPF dihe0 139.27 101.22 16.61 10.71 -162.31 -177.01 78.25 -175.77 -120.56 -24.07 
DOCKED: USER  keepresnum = 1 
DOCKED: USER  
DOCKED: REMARK  Name = 
DOCKED: REMARK  12 active torsions:
DOCKED: REMARK  status: ('A' for Active; 'I' for Inactive)
DOCKED: REMARK    1  A    between atoms: C_2  and  O_3
DOCKED: REMARK    2  A    between atoms: O_3  and  C_4
DOCKED: REMARK    3  A    between atoms: C_4  and  C_5
DOCKED: REMARK    4  A    between atoms: C_10  and  C_11
DOCKED: REMARK    5  A    between atoms: C_11  and  N_12
DOCKED: REMARK    6  A    between atoms: N_12  and  C_13
DOCKED: REMARK    7  A    between atoms: N_12  and  C_15
DOCKED: REMARK    8  A    between atoms: C_13  and  C_14
DOCKED: REMARK    9  A    between atoms: C_15  and  C_16
DOCKED: REMARK   10  A    between atoms: N_21  and  C_22
DOCKED: REMARK   11  A    between atoms: C_25  and  C_26
DOCKED: REMARK   12  A    between atoms: N_27  and  O_28
DOCKED: REMARK                            x       y       z     vdW  Elec       q    Type
DOCKED: REMARK                         _______ _______ _______ _____ _____    ______ ____
DOCKED: USER                              x       y       z     vdW  Elec       q    Type
DOCKED: USER                           _______ _______ _______ _____ _____    ______ ____
DOCKED: ROOT
DOCKED: ATOM      1  C   UNL     1      36.048  17.819 123.008 -0.25 -0.00    +0.000 C 
DOCKED: ENDROOT
DOCKED: BRANCH   1   2
DOCKED: ATOM      2  C   UNL     1      36.301  17.521 121.559 -0.18 -0.00    +0.000 A 
DOCKED: ATOM      3  C   UNL     1      35.322  17.810 120.597 -0.22 -0.00    +0.000 A 
DOCKED: ATOM      4  C   UNL     1      35.538  17.502 119.251 -0.15 -0.00    +0.000 A 
DOCKED: ATOM      5  C   UNL     1      36.733  16.886 118.852 -0.11 -0.00    +0.000 A 
DOCKED: ATOM      6  C   UNL     1      36.957  16.571 117.502 -0.10 -0.00    +0.000 A 
DOCKED: ATOM      7  C   UNL     1      38.154  15.950 117.109 -0.12 -0.00    +0.000 A 
DOCKED: ATOM      8  C   UNL     1      39.127  15.648 118.073 -0.14 -0.00    +0.000 A 
DOCKED: ATOM      9  C   UNL     1      38.911  15.957 119.419 -0.14 -0.00    +0.000 A 
DOCKED: ATOM     10  C   UNL     1      37.718  16.576 119.818 -0.12 -0.00    +0.000 A 
DOCKED: ATOM     11  C   UNL     1      37.493  16.890 121.167 -0.13 -0.00    +0.000 A 
DOCKED: ATOM     12  CM  UNL     1      36.518  17.197 120.208 +0.00 -0.00    +0.000 AC
DOCKED: ATOM     13  CM  UNL     1      37.934  16.264 118.462 +0.00 -0.00    +0.000 AC
DOCKED: BRANCH   7  12
DOCKED: ATOM     14  C   UNL     1      38.411  15.627 115.660 -0.18 -0.00    +0.000 C 
DOCKED: BRANCH  12  13
DOCKED: ATOM     15  N   UNL     1      37.452  14.604 115.190 -0.23 -0.00    +0.000 N 
DOCKED: ATOM     16  H   UNL     1      36.522  14.870 115.511 +0.00 -0.00    +0.000 HD
DOCKED: BRANCH  13  15
DOCKED: ATOM     17  C   UNL     1      37.725  13.283 115.804 -0.45 -0.00    +0.000 C 
DOCKED: ATOM     18  C   UNL     1      39.169  12.837 115.581 -0.54 -0.00    +0.000 C 
DOCKED: ENDBRANCH  13  15
DOCKED: BRANCH  13  17
DOCKED: ATOM     19  C   UNL     1      37.349  14.575 113.709 -0.25 -0.00    +0.000 C 
DOCKED: ATOM     20  C   UNL     1      36.600  13.355 113.152 -0.34 -0.00    +0.000 C 
DOCKED: ENDBRANCH  13  17
DOCKED: ENDBRANCH  12  13
DOCKED: ENDBRANCH   7  12
DOCKED: ENDBRANCH   1   2
DOCKED: BRANCH   1  19
DOCKED: ATOM     21  O   UNL     1      34.996  16.984 123.482 -0.39 -0.00    +0.000 OA
DOCKED: BRANCH  19  21
DOCKED: ATOM     22  O   UNL     1      34.086  14.893 123.831 -0.69 -0.00    +0.000 OA
DOCKED: ATOM     23  C   UNL     1      35.069  15.589 123.453 -0.49 -0.00    +0.000 C 
DOCKED: ATOM     24  N   UNL     1      36.288  14.963 123.032 -0.41 -0.00    +0.000 N 
DOCKED: ATOM     25  H   UNL     1      37.077  15.537 122.898 -0.01 -0.00    +0.000 HD
DOCKED: BRANCH  22  24
DOCKED: ATOM     26  C   UNL     1      36.436  13.554 122.791 -0.44 -0.00    +0.000 A 
DOCKED: ATOM     27  C   UNL     1      36.390  12.663 123.873 -0.54 -0.00    +0.000 A 
DOCKED: ATOM     28  C   UNL     1      36.552  11.290 123.669 -0.58 -0.00    +0.000 A 
DOCKED: ATOM     29  C   UNL     1      36.773  10.779 122.379 -0.56 -0.00    +0.000 A 
DOCKED: ATOM     30  C   UNL     1      36.855  11.677 121.299 -0.45 -0.00    +0.000 A 
DOCKED: ATOM     31  C   UNL     1      36.691  13.051 121.503 -0.33 -0.00    +0.000 A 
DOCKED: ATOM     32  CM  UNL     1      36.616  12.169 122.586 +0.00 -0.00    +0.000 AC
DOCKED: BRANCH  27  30
DOCKED: ATOM     33  C   UNL     1      36.948   9.320 122.178 -0.66 -0.00    +0.000 C 
DOCKED: ATOM     34  N   UNL     1      37.003   8.415 123.288 -0.70 -0.00    +0.000 N 
DOCKED: ATOM     35  O   UNL     1      37.066   8.863 121.009 -2.71 -0.00    +0.000 OA
DOCKED: ATOM     36  H   UNL     1      36.998   8.766 124.208 -0.51 -0.00    +0.000 HD
DOCKED: BRANCH  31  34
DOCKED: ATOM     37  O   UNL     1      37.061   7.078 123.077 -1.90 -0.00    +0.000 OA
DOCKED: ATOM     38  H   UNL     1      37.319   6.907 122.158 -0.23 -0.00    +0.000 HD
DOCKED: ENDBRANCH  31  34
DOCKED: ENDBRANCH  27  30
DOCKED: ENDBRANCH  22  24
DOCKED: ENDBRANCH  19  21
DOCKED: ENDBRANCH   1  19
DOCKED: TORSDOF 10DOCKED: TER
DOCKED: ENDMDL
________________________________________________________________________________


	BEGINNING GENETIC ALGORITHM DOCKING 82 of 100
Run: 82 Seed: 647819550 729368992 [ Run 82 of 100 GA/GALS ]
Beginning LAMARCKIAN GENETIC ALGORITHM (LGA), with a maximum of 2500000 energy evaluations.

Final-Value: -18.073


	FINAL GENETIC ALGORITHM DOCKED STATE
	_______________________________________________


Detailed state:  trans 36.878 16.891 122.057 quatxyzw 0.848699 -0.068008 -0.387767 0.353159 center 1.858 0.218 -0.021 ntor 10 172.2889 132.6261 11.0693 -76.2359 -161.4521 165.1498 -39.4950 102.5795 -118.7836 -174.7251
State:	 36.878  16.891 122.057   0.907 -0.073 -0.414 138.639    172.29  132.63   11.07  -76.24 -161.45  165.15  -39.50  102.58 -118.78 -174.73

DOCKED: MODEL       82
DOCKED: USER    Run = 82
DOCKED: USER    DPF = ligand_dock.biased.dpf
DOCKED: USER  
DOCKED: USER    Estimated Free Energy of Binding    =  -12.87 kcal/mol  [=(1)+(2)+(3)-(4)]
DOCKED: USER    Estimated Inhibition Constant, Ki   =  365.59 pM (picomolar)  [Temperature = 298.15 K]
DOCKED: USER    
DOCKED: USER    (1) Final Intermolecular Energy     =  -15.86 kcal/mol
DOCKED: USER        vdW + Hbond + desolv Energy     =  -15.86 kcal/mol
DOCKED: USER        Electrostatic Energy            =   +0.00 kcal/mol
DOCKED: USER    (2) Final Total Internal Energy     =   -2.22 kcal/mol
DOCKED: USER    (3) Torsional Free Energy           =   +2.98 kcal/mol
DOCKED: USER    (4) Unbound System's Energy  [=(2)] =   -2.22 kcal/mol
DOCKED: USER    
DOCKED: USER    
DOCKED: USER    NEWDPF move ligand.dum.pdbqt
DOCKED: USER    NEWDPF about 1.858000 0.218000 -0.021000
DOCKED: USER    NEWDPF tran0 36.878243 16.891403 122.056568
DOCKED: USER    NEWDPF quaternion0 0.848699 -0.068008 -0.387767 0.353159
DOCKED: USER    NEWDPF axisangle0 0.907153 -0.072692 -0.414475 138.638652
DOCKED: USER    NEWDPF quat0 0.907153 -0.072692 -0.414475 138.638652
DOCKED: USER    NEWDPF dihe0 172.29 132.63 11.07 -76.24 -161.45 165.15 -39.50 102.58 -118.78 -174.73 
DOCKED: USER  keepresnum = 1 
DOCKED: USER  
DOCKED: REMARK  Name = 
DOCKED: REMARK  12 active torsions:
DOCKED: REMARK  status: ('A' for Active; 'I' for Inactive)
DOCKED: REMARK    1  A    between atoms: C_2  and  O_3
DOCKED: REMARK    2  A    between atoms: O_3  and  C_4
DOCKED: REMARK    3  A    between atoms: C_4  and  C_5
DOCKED: REMARK    4  A    between atoms: C_10  and  C_11
DOCKED: REMARK    5  A    between atoms: C_11  and  N_12
DOCKED: REMARK    6  A    between atoms: N_12  and  C_13
DOCKED: REMARK    7  A    between atoms: N_12  and  C_15
DOCKED: REMARK    8  A    between atoms: C_13  and  C_14
DOCKED: REMARK    9  A    between atoms: C_15  and  C_16
DOCKED: REMARK   10  A    between atoms: N_21  and  C_22
DOCKED: REMARK   11  A    between atoms: C_25  and  C_26
DOCKED: REMARK   12  A    between atoms: N_27  and  O_28
DOCKED: REMARK                            x       y       z     vdW  Elec       q    Type
DOCKED: REMARK                         _______ _______ _______ _____ _____    ______ ____
DOCKED: USER                              x       y       z     vdW  Elec       q    Type
DOCKED: USER                           _______ _______ _______ _____ _____    ______ ____
DOCKED: ROOT
DOCKED: ATOM      1  C   UNL     1      36.111  18.333 121.852 -0.22 -0.00    +0.000 C 
DOCKED: ENDROOT
DOCKED: BRANCH   1   2
DOCKED: ATOM      2  C   UNL     1      35.503  17.849 123.137 -0.27 -0.00    +0.000 A 
DOCKED: ATOM      3  C   UNL     1      34.551  16.819 123.123 -0.39 -0.00    +0.000 A 
DOCKED: ATOM      4  C   UNL     1      33.955  16.389 124.311 -0.27 -0.00    +0.000 A 
DOCKED: ATOM      5  C   UNL     1      34.294  16.994 125.530 -0.38 -0.00    +0.000 A 
DOCKED: ATOM      6  C   UNL     1      33.699  16.570 126.728 -0.36 -0.00    +0.000 A 
DOCKED: ATOM      7  C   UNL     1      34.039  17.183 127.945 -0.22 -0.00    +0.000 A 
DOCKED: ATOM      8  C   UNL     1      34.981  18.224 127.957 -0.12 -0.00    +0.000 A 
DOCKED: ATOM      9  C   UNL     1      35.576  18.653 126.768 -0.15 -0.00    +0.000 A 
DOCKED: ATOM     10  C   UNL     1      35.241  18.046 125.550 -0.25 -0.00    +0.000 A 
DOCKED: ATOM     11  C   UNL     1      35.834  18.470 124.351 -0.22 -0.00    +0.000 A 
DOCKED: ATOM     12  CM  UNL     1      34.896  17.428 124.334 -0.32 -0.00    +0.000 AC
DOCKED: ATOM     13  CM  UNL     1      34.638  17.612 126.746 -0.06 -0.00    +0.000 AC
DOCKED: BRANCH   7  12
DOCKED: ATOM     14  C   UNL     1      33.420  16.721 129.238 -0.32 -0.00    +0.000 C 
DOCKED: BRANCH  12  13
DOCKED: ATOM     15  N   UNL     1      32.100  17.361 129.427 -0.30 -0.00    +0.000 N 
DOCKED: ATOM     16  H   UNL     1      32.178  18.336 129.141 +0.01 -0.00    +0.000 HD
DOCKED: BRANCH  13  15
DOCKED: ATOM     17  C   UNL     1      31.715  17.393 130.858 -0.23 -0.00    +0.000 C 
DOCKED: ATOM     18  C   UNL     1      32.464  16.341 131.674 -0.28 -0.00    +0.000 C 
DOCKED: ENDBRANCH  13  15
DOCKED: BRANCH  13  17
DOCKED: ATOM     19  C   UNL     1      31.066  16.784 128.532 -0.50 -0.00    +0.000 C 
DOCKED: ATOM     20  C   UNL     1      29.834  17.678 128.332 -0.42 -0.00    +0.000 C 
DOCKED: ENDBRANCH  13  17
DOCKED: ENDBRANCH  12  13
DOCKED: ENDBRANCH   7  12
DOCKED: ENDBRANCH   1   2
DOCKED: BRANCH   1  19
DOCKED: ATOM     21  O   UNL     1      37.210  17.495 121.510 -0.14 -0.00    +0.000 OA
DOCKED: BRANCH  19  21
DOCKED: ATOM     22  O   UNL     1      37.050  15.693 120.078 -0.22 -0.00    +0.000 OA
DOCKED: ATOM     23  C   UNL     1      37.069  16.127 121.264 -0.22 -0.00    +0.000 C 
DOCKED: ATOM     24  N   UNL     1      36.903  15.233 122.371 -0.31 -0.00    +0.000 N 
DOCKED: ATOM     25  H   UNL     1      36.766  15.627 123.264 -0.01 -0.00    +0.000 HD
DOCKED: BRANCH  22  24
DOCKED: ATOM     26  C   UNL     1      36.924  13.799 122.268 -0.40 -0.00    +0.000 A 
DOCKED: ATOM     27  C   UNL     1      36.900  13.025 123.436 -0.55 -0.00    +0.000 A 
DOCKED: ATOM     28  C   UNL     1      36.941  11.630 123.364 -0.60 -0.00    +0.000 A 
DOCKED: ATOM     29  C   UNL     1      37.016  10.979 122.121 -0.49 -0.00    +0.000 A 
DOCKED: ATOM     30  C   UNL     1      37.076  11.758 120.951 -0.45 -0.00    +0.000 A 
DOCKED: ATOM     31  C   UNL     1      37.034  13.154 121.023 -0.39 -0.00    +0.000 A 
DOCKED: ATOM     32  CM  UNL     1      36.982  12.391 122.194 +0.00 -0.00    +0.000 AC
DOCKED: BRANCH  27  30
DOCKED: ATOM     33  C   UNL     1      37.064   9.498 122.060 -0.62 -0.00    +0.000 C 
DOCKED: ATOM     34  N   UNL     1      37.123   8.703 123.251 -0.66 -0.00    +0.000 N 
DOCKED: ATOM     35  O   UNL     1      37.067   8.922 120.939 -2.72 -0.00    +0.000 OA
DOCKED: ATOM     36  H   UNL     1      37.207   9.141 124.129 -0.56 -0.00    +0.000 HD
DOCKED: BRANCH  31  34
DOCKED: ATOM     37  O   UNL     1      37.063   7.352 123.174 -2.15 -0.00    +0.000 OA
DOCKED: ATOM     38  H   UNL     1      37.158   7.076 122.250 -0.13 -0.00    +0.000 HD
DOCKED: ENDBRANCH  31  34
DOCKED: ENDBRANCH  27  30
DOCKED: ENDBRANCH  22  24
DOCKED: ENDBRANCH  19  21
DOCKED: ENDBRANCH   1  19
DOCKED: TORSDOF 10DOCKED: TER
DOCKED: ENDMDL
________________________________________________________________________________


	BEGINNING GENETIC ALGORITHM DOCKING 83 of 100
Run: 83 Seed: 1021677643 81219737 [ Run 83 of 100 GA/GALS ]
Beginning LAMARCKIAN GENETIC ALGORITHM (LGA), with a maximum of 2500000 energy evaluations.

Final-Value: -16.503


	FINAL GENETIC ALGORITHM DOCKED STATE
	_______________________________________________


Detailed state:  trans 37.332 16.806 123.392 quatxyzw -0.169212 -0.495787 -0.847545 -0.085032 center 1.858 0.218 -0.021 ntor 10 -28.2237 -69.0254 94.4381 31.2771 173.5152 29.4609 -129.9844 45.4191 -161.4014 -2.3181
State:	 37.332  16.806 123.392  -0.170 -0.498 -0.851 -170.244    -28.22  -69.03   94.44   31.28  173.52   29.46 -129.98   45.42 -161.40   -2.32

DOCKED: MODEL       83
DOCKED: USER    Run = 83
DOCKED: USER    DPF = ligand_dock.biased.dpf
DOCKED: USER  
DOCKED: USER    Estimated Free Energy of Binding    =  -11.99 kcal/mol  [=(1)+(2)+(3)-(4)]
DOCKED: USER    Estimated Inhibition Constant, Ki   =    1.63 nM (nanomolar)  [Temperature = 298.15 K]
DOCKED: USER    
DOCKED: USER    (1) Final Intermolecular Energy     =  -14.97 kcal/mol
DOCKED: USER        vdW + Hbond + desolv Energy     =  -14.97 kcal/mol
DOCKED: USER        Electrostatic Energy            =   +0.00 kcal/mol
DOCKED: USER    (2) Final Total Internal Energy     =   -1.53 kcal/mol
DOCKED: USER    (3) Torsional Free Energy           =   +2.98 kcal/mol
DOCKED: USER    (4) Unbound System's Energy  [=(2)] =   -1.53 kcal/mol
DOCKED: USER    
DOCKED: USER    
DOCKED: USER    NEWDPF move ligand.dum.pdbqt
DOCKED: USER    NEWDPF about 1.858000 0.218000 -0.021000
DOCKED: USER    NEWDPF tran0 37.331971 16.806377 123.391909
DOCKED: USER    NEWDPF quaternion0 -0.169212 -0.495787 -0.847545 -0.085032
DOCKED: USER    NEWDPF axisangle0 -0.169827 -0.497589 -0.850626 -170.244213
DOCKED: USER    NEWDPF quat0 -0.169827 -0.497589 -0.850626 -170.244213
DOCKED: USER    NEWDPF dihe0 -28.22 -69.03 94.44 31.28 173.52 29.46 -129.98 45.42 -161.40 -2.32 
DOCKED: USER  keepresnum = 1 
DOCKED: USER  
DOCKED: REMARK  Name = 
DOCKED: REMARK  12 active torsions:
DOCKED: REMARK  status: ('A' for Active; 'I' for Inactive)
DOCKED: REMARK    1  A    between atoms: C_2  and  O_3
DOCKED: REMARK    2  A    between atoms: O_3  and  C_4
DOCKED: REMARK    3  A    between atoms: C_4  and  C_5
DOCKED: REMARK    4  A    between atoms: C_10  and  C_11
DOCKED: REMARK    5  A    between atoms: C_11  and  N_12
DOCKED: REMARK    6  A    between atoms: N_12  and  C_13
DOCKED: REMARK    7  A    between atoms: N_12  and  C_15
DOCKED: REMARK    8  A    between atoms: C_13  and  C_14
DOCKED: REMARK    9  A    between atoms: C_15  and  C_16
DOCKED: REMARK   10  A    between atoms: N_21  and  C_22
DOCKED: REMARK   11  A    between atoms: C_25  and  C_26
DOCKED: REMARK   12  A    between atoms: N_27  and  O_28
DOCKED: REMARK                            x       y       z     vdW  Elec       q    Type
DOCKED: REMARK                         _______ _______ _______ _____ _____    ______ ____
DOCKED: USER                              x       y       z     vdW  Elec       q    Type
DOCKED: USER                           _______ _______ _______ _____ _____    ______ ____
DOCKED: ROOT
DOCKED: ATOM      1  C   UNL     1      37.576  18.431 123.476 -0.16 -0.00    +0.000 C 
DOCKED: ENDROOT
DOCKED: BRANCH   1   2
DOCKED: ATOM      2  C   UNL     1      38.740  17.997 122.633 -0.12 -0.00    +0.000 A 
DOCKED: ATOM      3  C   UNL     1      38.676  18.101 121.235 -0.06 -0.00    +0.000 A 
DOCKED: ATOM      4  C   UNL     1      39.741  17.666 120.443 -0.06 -0.00    +0.000 A 
DOCKED: ATOM      5  C   UNL     1      40.881  17.107 121.040 -0.12 -0.00    +0.000 A 
DOCKED: ATOM      6  C   UNL     1      41.955  16.665 120.251 -0.14 -0.00    +0.000 A 
DOCKED: ATOM      7  C   UNL     1      43.092  16.102 120.854 -0.24 -0.00    +0.000 A 
DOCKED: ATOM      8  C   UNL     1      43.150  15.985 122.251 -0.29 -0.00    +0.000 A 
DOCKED: ATOM      9  C   UNL     1      42.084  16.421 123.042 -0.39 -0.00    +0.000 A 
DOCKED: ATOM     10  C   UNL     1      40.946  16.983 122.447 -0.23 -0.00    +0.000 A 
DOCKED: ATOM     11  C   UNL     1      39.871  17.424 123.234 -0.21 -0.00    +0.000 A 
DOCKED: ATOM     12  CM  UNL     1      39.809  17.546 121.839 +0.00 -0.00    +0.000 AC
DOCKED: ATOM     13  CM  UNL     1      42.018  16.543 121.648 +0.00 -0.00    +0.000 AC
DOCKED: BRANCH   7  12
DOCKED: ATOM     14  C   UNL     1      44.257  15.643 120.017 -0.30 -0.00    +0.000 C 
DOCKED: BRANCH  12  13
DOCKED: ATOM     15  N   UNL     1      45.530  15.978 120.690 -0.27 +0.00    +0.000 N 
DOCKED: ATOM     16  H   UNL     1      45.594  15.422 121.542 -0.01 +0.00    +0.000 HD
DOCKED: BRANCH  13  15
DOCKED: ATOM     17  C   UNL     1      45.552  17.393 121.132 -0.18 -0.00    +0.000 C 
DOCKED: ATOM     18  C   UNL     1      46.155  17.544 122.529 -0.31 -0.00    +0.000 C 
DOCKED: ENDBRANCH  13  15
DOCKED: BRANCH  13  17
DOCKED: ATOM     19  C   UNL     1      46.710  15.575 119.885 -0.28 +0.00    +0.000 C 
DOCKED: ATOM     20  C   UNL     1      46.364  14.859 118.572 -0.40 +0.00    +0.000 C 
DOCKED: ENDBRANCH  13  17
DOCKED: ENDBRANCH  12  13
DOCKED: ENDBRANCH   7  12
DOCKED: ENDBRANCH   1   2
DOCKED: BRANCH   1  19
DOCKED: ATOM     21  O   UNL     1      36.674  17.340 123.627 -0.26 -0.00    +0.000 OA
DOCKED: BRANCH  19  21
DOCKED: ATOM     22  O   UNL     1      38.145  15.575 123.833 -0.26 -0.00    +0.000 OA
DOCKED: ATOM     23  C   UNL     1      37.047  16.014 123.393 -0.34 -0.00    +0.000 C 
DOCKED: ATOM     24  N   UNL     1      36.187  15.176 122.611 -0.32 -0.00    +0.000 N 
DOCKED: ATOM     25  H   UNL     1      35.422  15.599 122.156 -0.01 -0.00    +0.000 HD
DOCKED: BRANCH  22  24
DOCKED: ATOM     26  C   UNL     1      36.365  13.759 122.446 -0.25 -0.00    +0.000 A 
DOCKED: ATOM     27  C   UNL     1      35.890  12.887 123.435 -0.53 -0.00    +0.000 A 
DOCKED: ATOM     28  C   UNL     1      36.069  11.506 123.309 -0.62 -0.00    +0.000 A 
DOCKED: ATOM     29  C   UNL     1      36.736  10.970 122.195 -0.56 -0.00    +0.000 A 
DOCKED: ATOM     30  C   UNL     1      37.244  11.849 121.221 -0.46 -0.00    +0.000 A 
DOCKED: ATOM     31  C   UNL     1      37.063  13.230 121.346 -0.40 -0.00    +0.000 A 
DOCKED: ATOM     32  CM  UNL     1      36.561  12.366 122.326 +0.00 -0.00    +0.000 AC
DOCKED: BRANCH  27  30
DOCKED: ATOM     33  C   UNL     1      36.923   9.503 122.077 -0.65 -0.00    +0.000 C 
DOCKED: ATOM     34  N   UNL     1      37.028   8.668 123.237 -0.68 -0.00    +0.000 N 
DOCKED: ATOM     35  O   UNL     1      37.006   8.977 120.934 -2.70 -0.00    +0.000 OA
DOCKED: ATOM     36  H   UNL     1      37.051   9.075 124.133 -0.54 -0.00    +0.000 HD
DOCKED: BRANCH  31  34
DOCKED: ATOM     37  O   UNL     1      37.096   7.322 123.106 -2.12 -0.00    +0.000 OA
DOCKED: ATOM     38  H   UNL     1      38.025   7.044 123.098 -0.50 -0.00    +0.000 HD
DOCKED: ENDBRANCH  31  34
DOCKED: ENDBRANCH  27  30
DOCKED: ENDBRANCH  22  24
DOCKED: ENDBRANCH  19  21
DOCKED: ENDBRANCH   1  19
DOCKED: TORSDOF 10DOCKED: TER
DOCKED: ENDMDL
________________________________________________________________________________


	BEGINNING GENETIC ALGORITHM DOCKING 84 of 100
Run: 84 Seed: 77438508 1112374265 [ Run 84 of 100 GA/GALS ]
Beginning LAMARCKIAN GENETIC ALGORITHM (LGA), with a maximum of 2500000 energy evaluations.

Final-Value: -16.781


	FINAL GENETIC ALGORITHM DOCKED STATE
	_______________________________________________


Detailed state:  trans 37.852 17.161 123.069 quatxyzw 0.396945 0.520374 0.392674 0.646106 center 1.858 0.218 -0.021 ntor 10 -43.6836 -167.8474 6.7152 -34.4628 160.9596 180.0000 -92.9560 125.4363 154.1122 26.5784
State:	 37.852  17.161 123.069   0.520  0.682  0.514 99.503    -43.68 -167.85    6.72  -34.46  160.96  180.00  -92.96  125.44  154.11   26.58

DOCKED: MODEL       84
DOCKED: USER    Run = 84
DOCKED: USER    DPF = ligand_dock.biased.dpf
DOCKED: USER  
DOCKED: USER    Estimated Free Energy of Binding    =  -11.02 kcal/mol  [=(1)+(2)+(3)-(4)]
DOCKED: USER    Estimated Inhibition Constant, Ki   =    8.36 nM (nanomolar)  [Temperature = 298.15 K]
DOCKED: USER    
DOCKED: USER    (1) Final Intermolecular Energy     =  -14.00 kcal/mol
DOCKED: USER        vdW + Hbond + desolv Energy     =  -14.00 kcal/mol
DOCKED: USER        Electrostatic Energy            =   +0.00 kcal/mol
DOCKED: USER    (2) Final Total Internal Energy     =   -2.78 kcal/mol
DOCKED: USER    (3) Torsional Free Energy           =   +2.98 kcal/mol
DOCKED: USER    (4) Unbound System's Energy  [=(2)] =   -2.78 kcal/mol
DOCKED: USER    
DOCKED: USER    
DOCKED: USER    NEWDPF move ligand.dum.pdbqt
DOCKED: USER    NEWDPF about 1.858000 0.218000 -0.021000
DOCKED: USER    NEWDPF tran0 37.851503 17.160525 123.068522
DOCKED: USER    NEWDPF quaternion0 0.396945 0.520374 0.392674 0.646106
DOCKED: USER    NEWDPF axisangle0 0.520074 0.681789 0.514477 99.502697
DOCKED: USER    NEWDPF quat0 0.520074 0.681789 0.514477 99.502697
DOCKED: USER    NEWDPF dihe0 -43.68 -167.85 6.72 -34.46 160.96 180.00 -92.96 125.44 154.11 26.58 
DOCKED: USER  keepresnum = 1 
DOCKED: USER  
DOCKED: REMARK  Name = 
DOCKED: REMARK  12 active torsions:
DOCKED: REMARK  status: ('A' for Active; 'I' for Inactive)
DOCKED: REMARK    1  A    between atoms: C_2  and  O_3
DOCKED: REMARK    2  A    between atoms: O_3  and  C_4
DOCKED: REMARK    3  A    between atoms: C_4  and  C_5
DOCKED: REMARK    4  A    between atoms: C_10  and  C_11
DOCKED: REMARK    5  A    between atoms: C_11  and  N_12
DOCKED: REMARK    6  A    between atoms: N_12  and  C_13
DOCKED: REMARK    7  A    between atoms: N_12  and  C_15
DOCKED: REMARK    8  A    between atoms: C_13  and  C_14
DOCKED: REMARK    9  A    between atoms: C_15  and  C_16
DOCKED: REMARK   10  A    between atoms: N_21  and  C_22
DOCKED: REMARK   11  A    between atoms: C_25  and  C_26
DOCKED: REMARK   12  A    between atoms: N_27  and  O_28
DOCKED: REMARK                            x       y       z     vdW  Elec       q    Type
DOCKED: REMARK                         _______ _______ _______ _____ _____    ______ ____
DOCKED: USER                              x       y       z     vdW  Elec       q    Type
DOCKED: USER                           _______ _______ _______ _____ _____    ______ ____
DOCKED: ROOT
DOCKED: ATOM      1  C   UNL     1      36.681  18.310 123.198 -0.19 -0.00    +0.000 C 
DOCKED: ENDROOT
DOCKED: BRANCH   1   2
DOCKED: ATOM      2  C   UNL     1      36.560  17.921 121.753 -0.16 -0.00    +0.000 A 
DOCKED: ATOM      3  C   UNL     1      35.319  17.531 121.228 -0.24 -0.00    +0.000 A 
DOCKED: ATOM      4  C   UNL     1      35.207  17.134 119.893 +0.02 -0.00    +0.000 A 
DOCKED: ATOM      5  C   UNL     1      36.340  17.107 119.068 -0.12 -0.00    +0.000 A 
DOCKED: ATOM      6  C   UNL     1      36.237  16.708 117.726 -0.11 -0.00    +0.000 A 
DOCKED: ATOM      7  C   UNL     1      37.377  16.678 116.906 -0.08 -0.00    +0.000 A 
DOCKED: ATOM      8  C   UNL     1      38.621  17.054 117.435 -0.07 -0.00    +0.000 A 
DOCKED: ATOM      9  C   UNL     1      38.732  17.452 118.770 -0.05 -0.00    +0.000 A 
DOCKED: ATOM     10  C   UNL     1      37.599  17.483 119.594 -0.07 -0.00    +0.000 A 
DOCKED: ATOM     11  C   UNL     1      37.701  17.881 120.936 -0.08 -0.00    +0.000 A 
DOCKED: ATOM     12  CM  UNL     1      36.455  17.510 120.412 +0.00 -0.00    +0.000 AC
DOCKED: ATOM     13  CM  UNL     1      37.485  17.080 118.250 +0.00 -0.00    +0.000 AC
DOCKED: BRANCH   7  12
DOCKED: ATOM     14  C   UNL     1      37.272  16.269 115.460 -0.10 -0.00    +0.000 C 
DOCKED: BRANCH  12  13
DOCKED: ATOM     15  N   UNL     1      36.948  14.830 115.361 -0.19 -0.00    +0.000 N 
DOCKED: ATOM     16  H   UNL     1      36.861  14.459 116.306 -0.00 -0.00    +0.000 HD
DOCKED: BRANCH  13  15
DOCKED: ATOM     17  C   UNL     1      38.052  14.068 114.732 -0.37 -0.00    +0.000 C 
DOCKED: ATOM     18  C   UNL     1      38.562  12.949 115.638 -0.56 -0.00    +0.000 C 
DOCKED: ENDBRANCH  13  15
DOCKED: BRANCH  13  17
DOCKED: ATOM     19  C   UNL     1      35.620  14.599 114.739 -0.23 -0.00    +0.000 C 
DOCKED: ATOM     20  C   UNL     1      34.500  14.283 115.741 -0.30 -0.00    +0.000 C 
DOCKED: ENDBRANCH  13  17
DOCKED: ENDBRANCH  12  13
DOCKED: ENDBRANCH   7  12
DOCKED: ENDBRANCH   1   2
DOCKED: BRANCH   1  19
DOCKED: ATOM     21  O   UNL     1      37.545  17.392 123.860 -0.26 -0.00    +0.000 OA
DOCKED: BRANCH  19  21
DOCKED: ATOM     22  O   UNL     1      38.893  15.653 123.165 -0.34 -0.00    +0.000 OA
DOCKED: ATOM     23  C   UNL     1      37.732  16.079 123.419 -0.31 -0.00    +0.000 C 
DOCKED: ATOM     24  N   UNL     1      36.586  15.241 123.217 -0.39 -0.00    +0.000 N 
DOCKED: ATOM     25  H   UNL     1      35.696  15.658 123.274 -0.01 -0.00    +0.000 HD
DOCKED: BRANCH  22  24
DOCKED: ATOM     26  C   UNL     1      36.650  13.832 122.938 -0.47 -0.00    +0.000 A 
DOCKED: ATOM     27  C   UNL     1      36.049  12.928 123.825 -0.54 -0.00    +0.000 A 
DOCKED: ATOM     28  C   UNL     1      36.114  11.553 123.589 -0.61 -0.00    +0.000 A 
DOCKED: ATOM     29  C   UNL     1      36.791  11.051 122.464 -0.56 -0.00    +0.000 A 
DOCKED: ATOM     30  C   UNL     1      37.424  11.957 121.594 -0.40 -0.00    +0.000 A 
DOCKED: ATOM     31  C   UNL     1      37.358  13.334 121.831 -0.43 -0.00    +0.000 A 
DOCKED: ATOM     32  CM  UNL     1      36.731  12.442 122.707 +0.00 -0.00    +0.000 AC
DOCKED: BRANCH  27  30
DOCKED: ATOM     33  C   UNL     1      36.856   9.588 122.229 -0.66 -0.00    +0.000 C 
DOCKED: ATOM     34  N   UNL     1      37.093   8.669 123.302 -0.66 -0.00    +0.000 N 
DOCKED: ATOM     35  O   UNL     1      36.715   9.140 121.059 -2.62 -0.00    +0.000 OA
DOCKED: ATOM     36  H   UNL     1      37.289   9.009 124.205 -0.59 -0.00    +0.000 HD
DOCKED: BRANCH  31  34
DOCKED: ATOM     37  O   UNL     1      37.047   7.333 123.080 -2.15 -0.00    +0.000 OA
DOCKED: ATOM     38  H   UNL     1      36.949   7.166 122.130 -0.09 -0.00    +0.000 HD
DOCKED: ENDBRANCH  31  34
DOCKED: ENDBRANCH  27  30
DOCKED: ENDBRANCH  22  24
DOCKED: ENDBRANCH  19  21
DOCKED: ENDBRANCH   1  19
DOCKED: TORSDOF 10DOCKED: TER
DOCKED: ENDMDL
________________________________________________________________________________


	BEGINNING GENETIC ALGORITHM DOCKING 85 of 100
Run: 85 Seed: 643988419 211045818 [ Run 85 of 100 GA/GALS ]
Beginning LAMARCKIAN GENETIC ALGORITHM (LGA), with a maximum of 2500000 energy evaluations.

Final-Value: -17.799


	FINAL GENETIC ALGORITHM DOCKED STATE
	_______________________________________________


Detailed state:  trans 37.615 17.419 122.160 quatxyzw -0.456067 0.326172 0.001207 -0.828017 center 1.858 0.218 -0.021 ntor 10 -173.6469 20.5070 9.7879 -118.1892 -14.6209 -42.1388 44.0254 -55.9458 104.0384 -101.3050
State:	 37.615  17.419 122.160  -0.813  0.582  0.002 -68.209   -173.65   20.51    9.79 -118.19  -14.62  -42.14   44.03  -55.95  104.04 -101.31

DOCKED: MODEL       85
DOCKED: USER    Run = 85
DOCKED: USER    DPF = ligand_dock.biased.dpf
DOCKED: USER  
DOCKED: USER    Estimated Free Energy of Binding    =  -12.55 kcal/mol  [=(1)+(2)+(3)-(4)]
DOCKED: USER    Estimated Inhibition Constant, Ki   =  631.17 pM (picomolar)  [Temperature = 298.15 K]
DOCKED: USER    
DOCKED: USER    (1) Final Intermolecular Energy     =  -15.53 kcal/mol
DOCKED: USER        vdW + Hbond + desolv Energy     =  -15.53 kcal/mol
DOCKED: USER        Electrostatic Energy            =   +0.00 kcal/mol
DOCKED: USER    (2) Final Total Internal Energy     =   -2.26 kcal/mol
DOCKED: USER    (3) Torsional Free Energy           =   +2.98 kcal/mol
DOCKED: USER    (4) Unbound System's Energy  [=(2)] =   -2.26 kcal/mol
DOCKED: USER    
DOCKED: USER    
DOCKED: USER    NEWDPF move ligand.dum.pdbqt
DOCKED: USER    NEWDPF about 1.858000 0.218000 -0.021000
DOCKED: USER    NEWDPF tran0 37.614643 17.419370 122.160262
DOCKED: USER    NEWDPF quaternion0 -0.456067 0.326172 0.001207 -0.828017
DOCKED: USER    NEWDPF axisangle0 -0.813385 0.581721 0.002153 -68.208759
DOCKED: USER    NEWDPF quat0 -0.813385 0.581721 0.002153 -68.208759
DOCKED: USER    NEWDPF dihe0 -173.65 20.51 9.79 -118.19 -14.62 -42.14 44.03 -55.95 104.04 -101.31 
DOCKED: USER  keepresnum = 1 
DOCKED: USER  
DOCKED: REMARK  Name = 
DOCKED: REMARK  12 active torsions:
DOCKED: REMARK  status: ('A' for Active; 'I' for Inactive)
DOCKED: REMARK    1  A    between atoms: C_2  and  O_3
DOCKED: REMARK    2  A    between atoms: O_3  and  C_4
DOCKED: REMARK    3  A    between atoms: C_4  and  C_5
DOCKED: REMARK    4  A    between atoms: C_10  and  C_11
DOCKED: REMARK    5  A    between atoms: C_11  and  N_12
DOCKED: REMARK    6  A    between atoms: N_12  and  C_13
DOCKED: REMARK    7  A    between atoms: N_12  and  C_15
DOCKED: REMARK    8  A    between atoms: C_13  and  C_14
DOCKED: REMARK    9  A    between atoms: C_15  and  C_16
DOCKED: REMARK   10  A    between atoms: N_21  and  C_22
DOCKED: REMARK   11  A    between atoms: C_25  and  C_26
DOCKED: REMARK   12  A    between atoms: N_27  and  O_28
DOCKED: REMARK                            x       y       z     vdW  Elec       q    Type
DOCKED: REMARK                         _______ _______ _______ _____ _____    ______ ____
DOCKED: USER                              x       y       z     vdW  Elec       q    Type
DOCKED: USER                           _______ _______ _______ _____ _____    ______ ____
DOCKED: ROOT
DOCKED: ATOM      1  C   UNL     1      38.497  18.216 123.299 -0.16 -0.00    +0.000 C 
DOCKED: ENDROOT
DOCKED: BRANCH   1   2
DOCKED: ATOM      2  C   UNL     1      37.143  18.173 123.945 -0.18 -0.00    +0.000 A 
DOCKED: ATOM      3  C   UNL     1      36.060  17.583 123.276 -0.24 -0.00    +0.000 A 
DOCKED: ATOM      4  C   UNL     1      34.789  17.572 123.858 -0.35 -0.00    +0.000 A 
DOCKED: ATOM      5  C   UNL     1      34.582  18.165 125.111 -0.31 -0.00    +0.000 A 
DOCKED: ATOM      6  C   UNL     1      33.309  18.159 125.702 -0.26 -0.00    +0.000 A 
DOCKED: ATOM      7  C   UNL     1      33.106  18.759 126.955 -0.24 -0.00    +0.000 A 
DOCKED: ATOM      8  C   UNL     1      34.186  19.362 127.618 -0.13 -0.00    +0.000 A 
DOCKED: ATOM      9  C   UNL     1      35.456  19.373 127.036 -0.13 -0.00    +0.000 A 
DOCKED: ATOM     10  C   UNL     1      35.665  18.777 125.785 -0.19 -0.00    +0.000 A 
DOCKED: ATOM     11  C   UNL     1      36.938  18.782 125.193 -0.16 -0.00    +0.000 A 
DOCKED: ATOM     12  CM  UNL     1      35.863  18.175 124.528 -0.19 -0.00    +0.000 AC
DOCKED: ATOM     13  CM  UNL     1      34.384  18.766 126.368 -0.06 -0.00    +0.000 AC
DOCKED: BRANCH   7  12
DOCKED: ATOM     14  C   UNL     1      31.747  18.741 127.605 -0.24 -0.00    +0.000 C 
DOCKED: BRANCH  12  13
DOCKED: ATOM     15  N   UNL     1      31.401  17.366 128.022 -0.36 -0.00    +0.000 N 
DOCKED: ATOM     16  H   UNL     1      31.022  16.875 127.213 -0.56 -0.00    +0.000 HD
DOCKED: BRANCH  13  15
DOCKED: ATOM     17  C   UNL     1      30.318  17.363 129.034 -0.46 -0.00    +0.000 C 
DOCKED: ATOM     18  C   UNL     1      29.977  18.775 129.509 -0.34 -0.00    +0.000 C 
DOCKED: ENDBRANCH  13  15
DOCKED: BRANCH  13  17
DOCKED: ATOM     19  C   UNL     1      32.600  16.583 128.413 -0.43 -0.00    +0.000 C 
DOCKED: ATOM     20  C   UNL     1      33.002  16.739 129.887 -0.30 -0.00    +0.000 C 
DOCKED: ENDBRANCH  13  17
DOCKED: ENDBRANCH  12  13
DOCKED: ENDBRANCH   7  12
DOCKED: ENDBRANCH   1   2
DOCKED: BRANCH   1  19
DOCKED: ATOM     21  O   UNL     1      38.493  17.377 122.147 -0.14 -0.00    +0.000 OA
DOCKED: BRANCH  19  21
DOCKED: ATOM     22  O   UNL     1      39.514  15.422 122.826 -0.40 -0.00    +0.000 OA
DOCKED: ATOM     23  C   UNL     1      38.554  15.984 122.228 -0.27 -0.00    +0.000 C 
DOCKED: ATOM     24  N   UNL     1      37.537  15.203 121.587 -0.25 -0.00    +0.000 N 
DOCKED: ATOM     25  H   UNL     1      36.898  15.672 121.002 -0.00 -0.00    +0.000 HD
DOCKED: BRANCH  22  24
DOCKED: ATOM     26  C   UNL     1      37.386  13.782 121.742 -0.39 -0.00    +0.000 A 
DOCKED: ATOM     27  C   UNL     1      37.809  12.930 120.712 -0.44 -0.00    +0.000 A 
DOCKED: ATOM     28  C   UNL     1      37.654  11.546 120.828 -0.21 -0.00    +0.000 A 
DOCKED: ATOM     29  C   UNL     1      37.064  10.985 121.973 -0.47 -0.00    +0.000 A 
DOCKED: ATOM     30  C   UNL     1      36.607  11.843 122.990 -0.61 -0.00    +0.000 A 
DOCKED: ATOM     31  C   UNL     1      36.763  13.228 122.874 -0.51 -0.00    +0.000 A 
DOCKED: ATOM     32  CM  UNL     1      37.214  12.385 121.853 +0.00 -0.00    +0.000 AC
DOCKED: BRANCH  27  30
DOCKED: ATOM     33  C   UNL     1      36.902   9.514 122.080 -0.65 -0.00    +0.000 C 
DOCKED: ATOM     34  N   UNL     1      37.077   8.832 123.327 -0.64 -0.00    +0.000 N 
DOCKED: ATOM     35  O   UNL     1      36.619   8.844 121.049 -2.53 -0.00    +0.000 OA
DOCKED: ATOM     36  H   UNL     1      37.381   9.330 124.120 -0.58 -0.00    +0.000 HD
DOCKED: BRANCH  31  34
DOCKED: ATOM     37  O   UNL     1      36.825   7.504 123.421 -2.09 -0.00    +0.000 OA
DOCKED: ATOM     38  H   UNL     1      36.687   7.138 122.534 -0.05 -0.00    +0.000 HD
DOCKED: ENDBRANCH  31  34
DOCKED: ENDBRANCH  27  30
DOCKED: ENDBRANCH  22  24
DOCKED: ENDBRANCH  19  21
DOCKED: ENDBRANCH   1  19
DOCKED: TORSDOF 10DOCKED: TER
DOCKED: ENDMDL
________________________________________________________________________________


	BEGINNING GENETIC ALGORITHM DOCKING 86 of 100
Run: 86 Seed: 806149444 1069764184 [ Run 86 of 100 GA/GALS ]
Beginning LAMARCKIAN GENETIC ALGORITHM (LGA), with a maximum of 2500000 energy evaluations.

Final-Value: -16.645


	FINAL GENETIC ALGORITHM DOCKED STATE
	_______________________________________________


Detailed state:  trans 38.065 16.907 122.126 quatxyzw 0.073990 -0.019715 -0.996151 0.042672 center 1.858 0.218 -0.021 ntor 10 24.2835 -136.7997 12.5744 -36.2312 -167.4718 -148.4142 -7.5175 179.8959 -90.0106 -153.0404
State:	 38.065  16.907 122.126   0.074 -0.020 -0.997 175.109     24.28 -136.80   12.57  -36.23 -167.47 -148.41   -7.52  179.90  -90.01 -153.04

DOCKED: MODEL       86
DOCKED: USER    Run = 86
DOCKED: USER    DPF = ligand_dock.biased.dpf
DOCKED: USER  
DOCKED: USER    Estimated Free Energy of Binding    =  -11.53 kcal/mol  [=(1)+(2)+(3)-(4)]
DOCKED: USER    Estimated Inhibition Constant, Ki   =    3.52 nM (nanomolar)  [Temperature = 298.15 K]
DOCKED: USER    
DOCKED: USER    (1) Final Intermolecular Energy     =  -14.52 kcal/mol
DOCKED: USER        vdW + Hbond + desolv Energy     =  -14.52 kcal/mol
DOCKED: USER        Electrostatic Energy            =   +0.00 kcal/mol
DOCKED: USER    (2) Final Total Internal Energy     =   -2.13 kcal/mol
DOCKED: USER    (3) Torsional Free Energy           =   +2.98 kcal/mol
DOCKED: USER    (4) Unbound System's Energy  [=(2)] =   -2.13 kcal/mol
DOCKED: USER    
DOCKED: USER    
DOCKED: USER    NEWDPF move ligand.dum.pdbqt
DOCKED: USER    NEWDPF about 1.858000 0.218000 -0.021000
DOCKED: USER    NEWDPF tran0 38.065340 16.907376 122.125968
DOCKED: USER    NEWDPF quaternion0 0.073990 -0.019715 -0.996151 0.042672
DOCKED: USER    NEWDPF axisangle0 0.074058 -0.019733 -0.997059 175.108670
DOCKED: USER    NEWDPF quat0 0.074058 -0.019733 -0.997059 175.108670
DOCKED: USER    NEWDPF dihe0 24.28 -136.80 12.57 -36.23 -167.47 -148.41 -7.52 179.90 -90.01 -153.04 
DOCKED: USER  keepresnum = 1 
DOCKED: USER  
DOCKED: REMARK  Name = 
DOCKED: REMARK  12 active torsions:
DOCKED: REMARK  status: ('A' for Active; 'I' for Inactive)
DOCKED: REMARK    1  A    between atoms: C_2  and  O_3
DOCKED: REMARK    2  A    between atoms: O_3  and  C_4
DOCKED: REMARK    3  A    between atoms: C_4  and  C_5
DOCKED: REMARK    4  A    between atoms: C_10  and  C_11
DOCKED: REMARK    5  A    between atoms: C_11  and  N_12
DOCKED: REMARK    6  A    between atoms: N_12  and  C_13
DOCKED: REMARK    7  A    between atoms: N_12  and  C_15
DOCKED: REMARK    8  A    between atoms: C_13  and  C_14
DOCKED: REMARK    9  A    between atoms: C_15  and  C_16
DOCKED: REMARK   10  A    between atoms: N_21  and  C_22
DOCKED: REMARK   11  A    between atoms: C_25  and  C_26
DOCKED: REMARK   12  A    between atoms: N_27  and  O_28
DOCKED: REMARK                            x       y       z     vdW  Elec       q    Type
DOCKED: REMARK                         _______ _______ _______ _____ _____    ______ ____
DOCKED: USER                              x       y       z     vdW  Elec       q    Type
DOCKED: USER                           _______ _______ _______ _____ _____    ______ ____
DOCKED: ROOT
DOCKED: ATOM      1  C   UNL     1      38.059  17.618 123.610 -0.21 -0.00    +0.000 C 
DOCKED: ENDROOT
DOCKED: BRANCH   1   2
DOCKED: ATOM      2  C   UNL     1      39.527  17.586 123.300 -0.20 -0.00    +0.000 A 
DOCKED: ATOM      3  C   UNL     1      40.144  16.381 122.928 -0.26 -0.00    +0.000 A 
DOCKED: ATOM      4  C   UNL     1      41.517  16.337 122.673 -0.36 -0.00    +0.000 A 
DOCKED: ATOM      5  C   UNL     1      42.295  17.497 122.800 -0.28 -0.00    +0.000 A 
DOCKED: ATOM      6  C   UNL     1      43.675  17.461 122.547 -0.28 -0.00    +0.000 A 
DOCKED: ATOM      7  C   UNL     1      44.451  18.625 122.680 -0.17 -0.00    +0.000 A 
DOCKED: ATOM      8  C   UNL     1      43.837  19.826 123.066 -0.10 -0.00    +0.000 A 
DOCKED: ATOM      9  C   UNL     1      42.464  19.869 123.321 -0.10 -0.00    +0.000 A 
DOCKED: ATOM     10  C   UNL     1      41.684  18.712 123.190 -0.16 -0.00    +0.000 A 
DOCKED: ATOM     11  C   UNL     1      40.304  18.746 123.444 -0.13 -0.00    +0.000 A 
DOCKED: ATOM     12  CM  UNL     1      40.912  17.543 123.056 +0.00 -0.00    +0.000 AC
DOCKED: ATOM     13  CM  UNL     1      43.068  18.665 122.934 +0.00 -0.00    +0.000 AC
DOCKED: BRANCH   7  12
DOCKED: ATOM     14  C   UNL     1      45.929  18.600 122.392 -0.20 -0.00    +0.000 C 
DOCKED: BRANCH  12  13
DOCKED: ATOM     15  N   UNL     1      46.514  17.321 122.847 -0.34 -0.00    +0.000 N 
DOCKED: ATOM     16  H   UNL     1      45.771  16.764 123.267 -0.05 +0.00    +0.000 HD
DOCKED: BRANCH  13  15
DOCKED: ATOM     17  C   UNL     1      47.512  17.533 123.922 -0.43 -0.00    +0.000 C 
DOCKED: ATOM     18  C   UNL     1      48.306  16.263 124.223 -0.46 +0.00    +0.000 C 
DOCKED: ENDBRANCH  13  15
DOCKED: BRANCH  13  17
DOCKED: ATOM     19  C   UNL     1      47.009  16.499 121.713 -0.30 +0.00    +0.000 C 
DOCKED: ATOM     20  C   UNL     1      45.901  15.915 120.826 -0.29 +0.00    +0.000 C 
DOCKED: ENDBRANCH  13  17
DOCKED: ENDBRANCH  12  13
DOCKED: ENDBRANCH   7  12
DOCKED: ENDBRANCH   1   2
DOCKED: BRANCH   1  19
DOCKED: ATOM     21  O   UNL     1      37.325  17.262 122.443 -0.18 -0.00    +0.000 OA
DOCKED: BRANCH  19  21
DOCKED: ATOM     22  O   UNL     1      36.308  15.682 121.105 -0.21 -0.00    +0.000 OA
DOCKED: ATOM     23  C   UNL     1      36.980  15.943 122.141 -0.28 -0.00    +0.000 C 
DOCKED: ATOM     24  N   UNL     1      37.361  14.898 123.046 -0.39 -0.00    +0.000 N 
DOCKED: ATOM     25  H   UNL     1      37.743  15.160 123.915 -0.03 -0.00    +0.000 HD
DOCKED: BRANCH  22  24
DOCKED: ATOM     26  C   UNL     1      37.223  13.494 122.769 -0.48 -0.00    +0.000 A 
DOCKED: ATOM     27  C   UNL     1      37.115  12.591 123.836 -0.44 -0.00    +0.000 A 
DOCKED: ATOM     28  C   UNL     1      37.002  11.219 123.595 -0.55 -0.00    +0.000 A 
DOCKED: ATOM     29  C   UNL     1      37.004  10.720 122.281 -0.49 -0.00    +0.000 A 
DOCKED: ATOM     30  C   UNL     1      37.148  11.624 121.213 -0.45 -0.00    +0.000 A 
DOCKED: ATOM     31  C   UNL     1      37.261  12.997 121.455 -0.44 -0.00    +0.000 A 
DOCKED: ATOM     32  CM  UNL     1      37.126  12.107 122.525 +0.00 -0.00    +0.000 AC
DOCKED: BRANCH  27  30
DOCKED: ATOM     33  C   UNL     1      36.887   9.261 122.041 -0.68 -0.00    +0.000 C 
DOCKED: ATOM     34  N   UNL     1      36.987   8.317 123.115 -0.73 -0.00    +0.000 N 
DOCKED: ATOM     35  O   UNL     1      36.711   8.837 120.867 -2.62 +0.00    +0.000 OA
DOCKED: ATOM     36  H   UNL     1      37.209   8.628 124.022 -0.42 -0.00    +0.000 HD
DOCKED: BRANCH  31  34
DOCKED: ATOM     37  O   UNL     1      36.776   6.999 122.887 -1.67 -0.00    +0.000 OA
DOCKED: ATOM     38  H   UNL     1      36.767   6.833 121.931 -0.13 -0.00    +0.000 HD
DOCKED: ENDBRANCH  31  34
DOCKED: ENDBRANCH  27  30
DOCKED: ENDBRANCH  22  24
DOCKED: ENDBRANCH  19  21
DOCKED: ENDBRANCH   1  19
DOCKED: TORSDOF 10DOCKED: TER
DOCKED: ENDMDL
________________________________________________________________________________


	BEGINNING GENETIC ALGORITHM DOCKING 87 of 100
Run: 87 Seed: 1850606546 55514749 [ Run 87 of 100 GA/GALS ]
Beginning LAMARCKIAN GENETIC ALGORITHM (LGA), with a maximum of 2500000 energy evaluations.

Final-Value: -17.633


	FINAL GENETIC ALGORITHM DOCKED STATE
	_______________________________________________


Detailed state:  trans 35.843 17.046 124.224 quatxyzw 0.865491 -0.114893 -0.476210 0.104635 center 1.858 0.218 -0.021 ntor 10 180.0000 123.3137 12.0498 -134.6385 -173.7973 148.0103 107.3244 -29.7904 -100.7617 -3.5519
State:	 35.843  17.046 124.224   0.870 -0.116 -0.479 167.988    180.00  123.31   12.05 -134.64 -173.80  148.01  107.32  -29.79 -100.76   -3.55

DOCKED: MODEL       87
DOCKED: USER    Run = 87
DOCKED: USER    DPF = ligand_dock.biased.dpf
DOCKED: USER  
DOCKED: USER    Estimated Free Energy of Binding    =  -12.62 kcal/mol  [=(1)+(2)+(3)-(4)]
DOCKED: USER    Estimated Inhibition Constant, Ki   =  561.82 pM (picomolar)  [Temperature = 298.15 K]
DOCKED: USER    
DOCKED: USER    (1) Final Intermolecular Energy     =  -15.60 kcal/mol
DOCKED: USER        vdW + Hbond + desolv Energy     =  -15.60 kcal/mol
DOCKED: USER        Electrostatic Energy            =   +0.00 kcal/mol
DOCKED: USER    (2) Final Total Internal Energy     =   -2.03 kcal/mol
DOCKED: USER    (3) Torsional Free Energy           =   +2.98 kcal/mol
DOCKED: USER    (4) Unbound System's Energy  [=(2)] =   -2.03 kcal/mol
DOCKED: USER    
DOCKED: USER    
DOCKED: USER    NEWDPF move ligand.dum.pdbqt
DOCKED: USER    NEWDPF about 1.858000 0.218000 -0.021000
DOCKED: USER    NEWDPF tran0 35.842804 17.045640 124.223533
DOCKED: USER    NEWDPF quaternion0 0.865491 -0.114893 -0.476210 0.104635
DOCKED: USER    NEWDPF axisangle0 0.870268 -0.115527 -0.478839 167.987728
DOCKED: USER    NEWDPF quat0 0.870268 -0.115527 -0.478839 167.987728
DOCKED: USER    NEWDPF dihe0 180.00 123.31 12.05 -134.64 -173.80 148.01 107.32 -29.79 -100.76 -3.55 
DOCKED: USER  keepresnum = 1 
DOCKED: USER  
DOCKED: REMARK  Name = 
DOCKED: REMARK  12 active torsions:
DOCKED: REMARK  status: ('A' for Active; 'I' for Inactive)
DOCKED: REMARK    1  A    between atoms: C_2  and  O_3
DOCKED: REMARK    2  A    between atoms: O_3  and  C_4
DOCKED: REMARK    3  A    between atoms: C_4  and  C_5
DOCKED: REMARK    4  A    between atoms: C_10  and  C_11
DOCKED: REMARK    5  A    between atoms: C_11  and  N_12
DOCKED: REMARK    6  A    between atoms: N_12  and  C_13
DOCKED: REMARK    7  A    between atoms: N_12  and  C_15
DOCKED: REMARK    8  A    between atoms: C_13  and  C_14
DOCKED: REMARK    9  A    between atoms: C_15  and  C_16
DOCKED: REMARK   10  A    between atoms: N_21  and  C_22
DOCKED: REMARK   11  A    between atoms: C_25  and  C_26
DOCKED: REMARK   12  A    between atoms: N_27  and  O_28
DOCKED: REMARK                            x       y       z     vdW  Elec       q    Type
DOCKED: REMARK                         _______ _______ _______ _____ _____    ______ ____
DOCKED: USER                              x       y       z     vdW  Elec       q    Type
DOCKED: USER                           _______ _______ _______ _____ _____    ______ ____
DOCKED: ROOT
DOCKED: ATOM      1  C   UNL     1      34.757  18.123 123.617 -0.34 -0.00    +0.000 C 
DOCKED: ENDROOT
DOCKED: BRANCH   1   2
DOCKED: ATOM      2  C   UNL     1      34.477  18.213 125.089 -0.31 -0.00    +0.000 A 
DOCKED: ATOM      3  C   UNL     1      35.063  19.229 125.859 -0.19 -0.00    +0.000 A 
DOCKED: ATOM      4  C   UNL     1      34.835  19.297 127.235 -0.14 -0.00    +0.000 A 
DOCKED: ATOM      5  C   UNL     1      34.027  18.338 127.864 -0.18 -0.00    +0.000 A 
DOCKED: ATOM      6  C   UNL     1      33.794  18.397 129.247 -0.12 -0.00    +0.000 A 
DOCKED: ATOM      7  C   UNL     1      32.989  17.431 129.872 -0.21 -0.00    +0.000 A 
DOCKED: ATOM      8  C   UNL     1      32.414  16.406 129.104 -0.28 -0.00    +0.000 A 
DOCKED: ATOM      9  C   UNL     1      32.643  16.339 127.728 -0.38 -0.00    +0.000 A 
DOCKED: ATOM     10  C   UNL     1      33.447  17.300 127.098 -0.35 -0.00    +0.000 A 
DOCKED: ATOM     11  C   UNL     1      33.681  17.241 125.716 -0.33 -0.00    +0.000 A 
DOCKED: ATOM     12  CM  UNL     1      34.255  18.269 126.476 -0.08 -0.00    +0.000 AC
DOCKED: ATOM     13  CM  UNL     1      33.219  17.368 128.485 +0.00 -0.00    +0.000 AC
DOCKED: BRANCH   7  12
DOCKED: ATOM     14  C   UNL     1      32.717  17.498 131.352 -0.21 -0.00    +0.000 C 
DOCKED: BRANCH  12  13
DOCKED: ATOM     15  N   UNL     1      33.585  16.542 132.072 -0.24 -0.00    +0.000 N 
DOCKED: ATOM     16  H   UNL     1      33.037  15.706 132.273 -0.02 -0.00    +0.000 HD
DOCKED: BRANCH  13  15
DOCKED: ATOM     17  C   UNL     1      34.001  17.074 133.391 -0.17 -0.00    +0.000 C 
DOCKED: ATOM     18  C   UNL     1      33.717  18.570 133.517 -0.09 -0.00    +0.000 C 
DOCKED: ENDBRANCH  13  15
DOCKED: BRANCH  13  17
DOCKED: ATOM     19  C   UNL     1      34.710  16.064 131.228 -0.25 -0.00    +0.000 C 
DOCKED: ATOM     20  C   UNL     1      35.499  14.893 131.831 -0.34 -0.00    +0.000 C 
DOCKED: ENDBRANCH  13  17
DOCKED: ENDBRANCH  12  13
DOCKED: ENDBRANCH   7  12
DOCKED: ENDBRANCH   1   2
DOCKED: BRANCH   1  19
DOCKED: ATOM     21  O   UNL     1      35.946  17.367 123.411 -0.28 -0.00    +0.000 OA
DOCKED: BRANCH  19  21
DOCKED: ATOM     22  O   UNL     1      35.172  15.346 124.213 -0.59 -0.00    +0.000 OA
DOCKED: ATOM     23  C   UNL     1      35.970  15.971 123.460 -0.42 -0.00    +0.000 C 
DOCKED: ATOM     24  N   UNL     1      36.940  15.262 122.678 -0.34 -0.00    +0.000 N 
DOCKED: ATOM     25  H   UNL     1      37.642  15.788 122.230 +0.00 -0.00    +0.000 HD
DOCKED: BRANCH  22  24
DOCKED: ATOM     26  C   UNL     1      36.957  13.835 122.503 -0.43 -0.00    +0.000 A 
DOCKED: ATOM     27  C   UNL     1      36.668  13.006 123.595 -0.54 -0.00    +0.000 A 
DOCKED: ATOM     28  C   UNL     1      36.698  11.615 123.457 -0.63 -0.00    +0.000 A 
DOCKED: ATOM     29  C   UNL     1      37.027  11.025 122.225 -0.49 -0.00    +0.000 A 
DOCKED: ATOM     30  C   UNL     1      37.352  11.858 121.139 -0.44 -0.00    +0.000 A 
DOCKED: ATOM     31  C   UNL     1      37.321  13.250 121.277 -0.41 -0.00    +0.000 A 
DOCKED: ATOM     32  CM  UNL     1      37.004  12.431 122.366 +0.00 -0.00    +0.000 AC
DOCKED: BRANCH  27  30
DOCKED: ATOM     33  C   UNL     1      37.060   9.548 122.096 -0.61 -0.00    +0.000 C 
DOCKED: ATOM     34  N   UNL     1      37.109   8.698 123.248 -0.66 -0.00    +0.000 N 
DOCKED: ATOM     35  O   UNL     1      37.059   9.024 120.948 -2.72 -0.00    +0.000 OA
DOCKED: ATOM     36  H   UNL     1      37.196   9.093 124.145 -0.56 -0.00    +0.000 HD
DOCKED: BRANCH  31  34
DOCKED: ATOM     37  O   UNL     1      37.035   7.352 123.108 -2.15 -0.00    +0.000 OA
DOCKED: ATOM     38  H   UNL     1      37.144   7.118 122.173 -0.13 -0.00    +0.000 HD
DOCKED: ENDBRANCH  31  34
DOCKED: ENDBRANCH  27  30
DOCKED: ENDBRANCH  22  24
DOCKED: ENDBRANCH  19  21
DOCKED: ENDBRANCH   1  19
DOCKED: TORSDOF 10DOCKED: TER
DOCKED: ENDMDL
________________________________________________________________________________


	BEGINNING GENETIC ALGORITHM DOCKING 88 of 100
Run: 88 Seed: 39263868 1366580114 [ Run 88 of 100 GA/GALS ]
Beginning LAMARCKIAN GENETIC ALGORITHM (LGA), with a maximum of 2500000 energy evaluations.

Final-Value: -17.683


	FINAL GENETIC ALGORITHM DOCKED STATE
	_______________________________________________


Detailed state:  trans 36.757 16.925 122.688 quatxyzw 0.889590 -0.104687 -0.370203 0.246211 center 1.858 0.218 -0.021 ntor 10 -19.4866 -158.5462 21.1076 -39.7625 178.6934 169.8867 -21.2732 87.7403 -98.9793 -160.2162
State:	 36.757  16.925 122.688   0.918 -0.108 -0.382 151.493    -19.49 -158.55   21.11  -39.76  178.69  169.89  -21.27   87.74  -98.98 -160.22

DOCKED: MODEL       88
DOCKED: USER    Run = 88
DOCKED: USER    DPF = ligand_dock.biased.dpf
DOCKED: USER  
DOCKED: USER    Estimated Free Energy of Binding    =  -12.57 kcal/mol  [=(1)+(2)+(3)-(4)]
DOCKED: USER    Estimated Inhibition Constant, Ki   =  608.02 pM (picomolar)  [Temperature = 298.15 K]
DOCKED: USER    
DOCKED: USER    (1) Final Intermolecular Energy     =  -15.56 kcal/mol
DOCKED: USER        vdW + Hbond + desolv Energy     =  -15.56 kcal/mol
DOCKED: USER        Electrostatic Energy            =   +0.00 kcal/mol
DOCKED: USER    (2) Final Total Internal Energy     =   -2.13 kcal/mol
DOCKED: USER    (3) Torsional Free Energy           =   +2.98 kcal/mol
DOCKED: USER    (4) Unbound System's Energy  [=(2)] =   -2.13 kcal/mol
DOCKED: USER    
DOCKED: USER    
DOCKED: USER    NEWDPF move ligand.dum.pdbqt
DOCKED: USER    NEWDPF about 1.858000 0.218000 -0.021000
DOCKED: USER    NEWDPF tran0 36.756642 16.925078 122.687807
DOCKED: USER    NEWDPF quaternion0 0.889590 -0.104687 -0.370203 0.246211
DOCKED: USER    NEWDPF axisangle0 0.917845 -0.108012 -0.381961 151.493230
DOCKED: USER    NEWDPF quat0 0.917845 -0.108012 -0.381961 151.493230
DOCKED: USER    NEWDPF dihe0 -19.49 -158.55 21.11 -39.76 178.69 169.89 -21.27 87.74 -98.98 -160.22 
DOCKED: USER  keepresnum = 1 
DOCKED: USER  
DOCKED: REMARK  Name = 
DOCKED: REMARK  12 active torsions:
DOCKED: REMARK  status: ('A' for Active; 'I' for Inactive)
DOCKED: REMARK    1  A    between atoms: C_2  and  O_3
DOCKED: REMARK    2  A    between atoms: O_3  and  C_4
DOCKED: REMARK    3  A    between atoms: C_4  and  C_5
DOCKED: REMARK    4  A    between atoms: C_10  and  C_11
DOCKED: REMARK    5  A    between atoms: C_11  and  N_12
DOCKED: REMARK    6  A    between atoms: N_12  and  C_13
DOCKED: REMARK    7  A    between atoms: N_12  and  C_15
DOCKED: REMARK    8  A    between atoms: C_13  and  C_14
DOCKED: REMARK    9  A    between atoms: C_15  and  C_16
DOCKED: REMARK   10  A    between atoms: N_21  and  C_22
DOCKED: REMARK   11  A    between atoms: C_25  and  C_26
DOCKED: REMARK   12  A    between atoms: N_27  and  O_28
DOCKED: REMARK                            x       y       z     vdW  Elec       q    Type
DOCKED: REMARK                         _______ _______ _______ _____ _____    ______ ____
DOCKED: USER                              x       y       z     vdW  Elec       q    Type
DOCKED: USER                           _______ _______ _______ _____ _____    ______ ____
DOCKED: ROOT
DOCKED: ATOM      1  C   UNL     1      35.978  18.263 122.130 -0.23 -0.00    +0.000 C 
DOCKED: ENDROOT
DOCKED: BRANCH   1   2
DOCKED: ATOM      2  C   UNL     1      35.347  18.091 123.480 -0.27 -0.00    +0.000 A 
DOCKED: ATOM      3  C   UNL     1      34.651  16.913 123.790 -0.41 -0.00    +0.000 A 
DOCKED: ATOM      4  C   UNL     1      34.031  16.761 125.032 -0.39 -0.00    +0.000 A 
DOCKED: ATOM      5  C   UNL     1      34.086  17.794 125.979 -0.34 -0.00    +0.000 A 
DOCKED: ATOM      6  C   UNL     1      33.465  17.651 127.229 -0.31 -0.00    +0.000 A 
DOCKED: ATOM      7  C   UNL     1      33.520  18.691 128.171 -0.15 -0.00    +0.000 A 
DOCKED: ATOM      8  C   UNL     1      34.204  19.876 127.857 -0.09 -0.00    +0.000 A 
DOCKED: ATOM      9  C   UNL     1      34.824  20.026 126.614 -0.13 -0.00    +0.000 A 
DOCKED: ATOM     10  C   UNL     1      34.772  18.992 125.669 -0.23 -0.00    +0.000 A 
DOCKED: ATOM     11  C   UNL     1      35.392  19.135 124.418 -0.20 -0.00    +0.000 A 
DOCKED: ATOM     12  CM  UNL     1      34.713  17.948 124.728 -0.42 -0.00    +0.000 AC
DOCKED: ATOM     13  CM  UNL     1      34.145  18.839 126.920 -0.01 -0.00    +0.000 AC
DOCKED: BRANCH   7  12
DOCKED: ATOM     14  C   UNL     1      32.872  18.539 129.523 -0.14 -0.00    +0.000 C 
DOCKED: BRANCH  12  13
DOCKED: ATOM     15  N   UNL     1      31.413  18.751 129.414 -0.19 -0.00    +0.000 N 
DOCKED: ATOM     16  H   UNL     1      31.204  19.028 128.455 +0.00 -0.00    +0.000 HD
DOCKED: BRANCH  13  15
DOCKED: ATOM     17  C   UNL     1      30.965  19.880 130.263 -0.16 -0.00    +0.000 C 
DOCKED: ATOM     18  C   UNL     1      29.793  20.635 129.637 -0.24 -0.00    +0.000 C 
DOCKED: ENDBRANCH  13  15
DOCKED: BRANCH  13  17
DOCKED: ATOM     19  C   UNL     1      30.649  17.495 129.622 -0.44 -0.00    +0.000 C 
DOCKED: ATOM     20  C   UNL     1      30.351  16.717 128.332 -0.45 -0.00    +0.000 C 
DOCKED: ENDBRANCH  13  17
DOCKED: ENDBRANCH  12  13
DOCKED: ENDBRANCH   7  12
DOCKED: ENDBRANCH   1   2
DOCKED: BRANCH   1  19
DOCKED: ATOM     21  O   UNL     1      37.094  17.386 122.019 -0.16 -0.00    +0.000 OA
DOCKED: BRANCH  19  21
DOCKED: ATOM     22  O   UNL     1      36.920  15.661 120.496 -0.23 -0.00    +0.000 OA
DOCKED: ATOM     23  C   UNL     1      36.962  16.031 121.702 -0.24 -0.00    +0.000 C 
DOCKED: ATOM     24  N   UNL     1      36.829  15.077 122.764 -0.36 -0.00    +0.000 N 
DOCKED: ATOM     25  H   UNL     1      36.708  15.421 123.678 -0.02 -0.00    +0.000 HD
DOCKED: BRANCH  22  24
DOCKED: ATOM     26  C   UNL     1      36.863  13.651 122.582 -0.45 -0.00    +0.000 A 
DOCKED: ATOM     27  C   UNL     1      36.491  12.815 123.643 -0.56 -0.00    +0.000 A 
DOCKED: ATOM     28  C   UNL     1      36.535  11.425 123.501 -0.62 -0.00    +0.000 A 
DOCKED: ATOM     29  C   UNL     1      36.961  10.843 122.294 -0.51 -0.00    +0.000 A 
DOCKED: ATOM     30  C   UNL     1      37.367  11.683 121.242 -0.40 -0.00    +0.000 A 
DOCKED: ATOM     31  C   UNL     1      37.322  13.073 121.386 -0.43 -0.00    +0.000 A 
DOCKED: ATOM     32  CM  UNL     1      36.923  12.248 122.442 +0.00 -0.00    +0.000 AC
DOCKED: BRANCH  27  30
DOCKED: ATOM     33  C   UNL     1      37.006   9.366 122.159 -0.65 -0.00    +0.000 C 
DOCKED: ATOM     34  N   UNL     1      37.127   8.514 123.305 -0.68 -0.00    +0.000 N 
DOCKED: ATOM     35  O   UNL     1      36.952   8.846 121.012 -2.68 -0.00    +0.000 OA
DOCKED: ATOM     36  H   UNL     1      37.256   8.909 124.198 -0.57 -0.00    +0.000 HD
DOCKED: BRANCH  31  34
DOCKED: ATOM     37  O   UNL     1      37.064   7.168 123.165 -1.98 -0.00    +0.000 OA
DOCKED: ATOM     38  H   UNL     1      37.269   6.928 122.248 -0.20 -0.00    +0.000 HD
DOCKED: ENDBRANCH  31  34
DOCKED: ENDBRANCH  27  30
DOCKED: ENDBRANCH  22  24
DOCKED: ENDBRANCH  19  21
DOCKED: ENDBRANCH   1  19
DOCKED: TORSDOF 10DOCKED: TER
DOCKED: ENDMDL
________________________________________________________________________________


	BEGINNING GENETIC ALGORITHM DOCKING 89 of 100
Run: 89 Seed: 569714305 717055321 [ Run 89 of 100 GA/GALS ]
Beginning LAMARCKIAN GENETIC ALGORITHM (LGA), with a maximum of 2500000 energy evaluations.

Final-Value: -18.123


	FINAL GENETIC ALGORITHM DOCKED STATE
	_______________________________________________


Detailed state:  trans 36.356 17.059 122.941 quatxyzw -0.851253 0.082300 0.452194 -0.253212 center 1.858 0.218 -0.021 ntor 10 -112.9799 144.4745 -5.5595 -51.1263 -17.7343 -74.8189 -179.6993 93.4097 -103.8533 -170.3310
State:	 36.356  17.059 122.941  -0.880  0.085  0.467 -150.665   -112.98  144.47   -5.56  -51.13  -17.73  -74.82 -179.70   93.41 -103.85 -170.33

DOCKED: MODEL       89
DOCKED: USER    Run = 89
DOCKED: USER    DPF = ligand_dock.biased.dpf
DOCKED: USER  
DOCKED: USER    Estimated Free Energy of Binding    =  -12.85 kcal/mol  [=(1)+(2)+(3)-(4)]
DOCKED: USER    Estimated Inhibition Constant, Ki   =  382.61 pM (picomolar)  [Temperature = 298.15 K]
DOCKED: USER    
DOCKED: USER    (1) Final Intermolecular Energy     =  -15.83 kcal/mol
DOCKED: USER        vdW + Hbond + desolv Energy     =  -15.83 kcal/mol
DOCKED: USER        Electrostatic Energy            =   +0.00 kcal/mol
DOCKED: USER    (2) Final Total Internal Energy     =   -2.29 kcal/mol
DOCKED: USER    (3) Torsional Free Energy           =   +2.98 kcal/mol
DOCKED: USER    (4) Unbound System's Energy  [=(2)] =   -2.29 kcal/mol
DOCKED: USER    
DOCKED: USER    
DOCKED: USER    NEWDPF move ligand.dum.pdbqt
DOCKED: USER    NEWDPF about 1.858000 0.218000 -0.021000
DOCKED: USER    NEWDPF tran0 36.356010 17.058689 122.941159
DOCKED: USER    NEWDPF quaternion0 -0.851253 0.082300 0.452194 -0.253212
DOCKED: USER    NEWDPF axisangle0 -0.879929 0.085072 0.467427 -150.664719
DOCKED: USER    NEWDPF quat0 -0.879929 0.085072 0.467427 -150.664719
DOCKED: USER    NEWDPF dihe0 -112.98 144.47 -5.56 -51.13 -17.73 -74.82 -179.70 93.41 -103.85 -170.33 
DOCKED: USER  keepresnum = 1 
DOCKED: USER  
DOCKED: REMARK  Name = 
DOCKED: REMARK  12 active torsions:
DOCKED: REMARK  status: ('A' for Active; 'I' for Inactive)
DOCKED: REMARK    1  A    between atoms: C_2  and  O_3
DOCKED: REMARK    2  A    between atoms: O_3  and  C_4
DOCKED: REMARK    3  A    between atoms: C_4  and  C_5
DOCKED: REMARK    4  A    between atoms: C_10  and  C_11
DOCKED: REMARK    5  A    between atoms: C_11  and  N_12
DOCKED: REMARK    6  A    between atoms: N_12  and  C_13
DOCKED: REMARK    7  A    between atoms: N_12  and  C_15
DOCKED: REMARK    8  A    between atoms: C_13  and  C_14
DOCKED: REMARK    9  A    between atoms: C_15  and  C_16
DOCKED: REMARK   10  A    between atoms: N_21  and  C_22
DOCKED: REMARK   11  A    between atoms: C_25  and  C_26
DOCKED: REMARK   12  A    between atoms: N_27  and  O_28
DOCKED: REMARK                            x       y       z     vdW  Elec       q    Type
DOCKED: REMARK                         _______ _______ _______ _____ _____    ______ ____
DOCKED: USER                              x       y       z     vdW  Elec       q    Type
DOCKED: USER                           _______ _______ _______ _____ _____    ______ ____
DOCKED: ROOT
DOCKED: ATOM      1  C   UNL     1      35.416  18.368 122.609 -0.28 -0.00    +0.000 C 
DOCKED: ENDROOT
DOCKED: BRANCH   1   2
DOCKED: ATOM      2  C   UNL     1      35.025  18.071 124.027 -0.30 -0.00    +0.000 A 
DOCKED: ATOM      3  C   UNL     1      34.274  16.925 124.328 -0.41 -0.00    +0.000 A 
DOCKED: ATOM      4  C   UNL     1      33.877  16.661 125.641 -0.35 -0.00    +0.000 A 
DOCKED: ATOM      5  C   UNL     1      34.215  17.551 126.672 -0.27 -0.00    +0.000 A 
DOCKED: ATOM      6  C   UNL     1      33.819  17.295 127.994 -0.27 -0.00    +0.000 A 
DOCKED: ATOM      7  C   UNL     1      34.155  18.192 129.021 -0.14 -0.00    +0.000 A 
DOCKED: ATOM      8  C   UNL     1      34.894  19.346 128.718 -0.08 -0.00    +0.000 A 
DOCKED: ATOM      9  C   UNL     1      35.291  19.608 127.405 -0.11 -0.00    +0.000 A 
DOCKED: ATOM     10  C   UNL     1      34.958  18.718 126.375 -0.20 -0.00    +0.000 A 
DOCKED: ATOM     11  C   UNL     1      35.352  18.973 125.052 -0.22 -0.00    +0.000 A 
DOCKED: ATOM     12  CM  UNL     1      34.617  17.816 125.349 -0.43 -0.00    +0.000 AC
DOCKED: ATOM     13  CM  UNL     1      34.555  18.452 127.697 +0.00 -0.00    +0.000 AC
DOCKED: BRANCH   7  12
DOCKED: ATOM     14  C   UNL     1      33.751  17.915 130.445 -0.15 -0.00    +0.000 C 
DOCKED: BRANCH  12  13
DOCKED: ATOM     15  N   UNL     1      33.834  16.466 130.725 -0.24 -0.00    +0.000 N 
DOCKED: ATOM     16  H   UNL     1      33.884  15.974 129.834 -0.35 -0.00    +0.000 HD
DOCKED: BRANCH  13  15
DOCKED: ATOM     17  C   UNL     1      32.604  15.971 131.387 -0.27 -0.00    +0.000 C 
DOCKED: ATOM     18  C   UNL     1      31.345  16.341 130.603 -0.36 -0.00    +0.000 C 
DOCKED: ENDBRANCH  13  15
DOCKED: BRANCH  13  17
DOCKED: ATOM     19  C   UNL     1      35.090  16.105 131.430 -0.24 -0.00    +0.000 C 
DOCKED: ATOM     20  C   UNL     1      35.614  14.699 131.104 -0.32 -0.00    +0.000 C 
DOCKED: ENDBRANCH  13  17
DOCKED: ENDBRANCH  12  13
DOCKED: ENDBRANCH   7  12
DOCKED: ENDBRANCH   1   2
DOCKED: BRANCH   1  19
DOCKED: ATOM     21  O   UNL     1      36.551  17.581 122.261 -0.19 -0.00    +0.000 OA
DOCKED: BRANCH  19  21
DOCKED: ATOM     22  O   UNL     1      36.307  15.829 120.781 -0.21 -0.00    +0.000 OA
DOCKED: ATOM     23  C   UNL     1      36.464  16.217 121.971 -0.26 -0.00    +0.000 C 
DOCKED: ATOM     24  N   UNL     1      36.512  15.272 123.047 -0.38 -0.00    +0.000 N 
DOCKED: ATOM     25  H   UNL     1      36.476  15.620 123.968 -0.03 -0.00    +0.000 HD
DOCKED: BRANCH  22  24
DOCKED: ATOM     26  C   UNL     1      36.610  13.848 122.873 -0.45 -0.00    +0.000 A 
DOCKED: ATOM     27  C   UNL     1      37.321  13.336 121.779 -0.43 -0.00    +0.000 A 
DOCKED: ATOM     28  C   UNL     1      37.413  11.957 121.575 -0.41 -0.00    +0.000 A 
DOCKED: ATOM     29  C   UNL     1      36.787  11.060 122.456 -0.56 -0.00    +0.000 A 
DOCKED: ATOM     30  C   UNL     1      36.044  11.575 123.533 -0.62 -0.00    +0.000 A 
DOCKED: ATOM     31  C   UNL     1      35.952  12.955 123.738 -0.54 -0.00    +0.000 A 
DOCKED: ATOM     32  CM  UNL     1      36.688  12.455 122.659 +0.00 -0.00    +0.000 AC
DOCKED: BRANCH  27  30
DOCKED: ATOM     33  C   UNL     1      36.890   9.598 122.224 -0.65 -0.00    +0.000 C 
DOCKED: ATOM     34  N   UNL     1      37.083   8.681 123.307 -0.66 -0.00    +0.000 N 
DOCKED: ATOM     35  O   UNL     1      36.821   9.150 121.047 -2.65 -0.00    +0.000 OA
DOCKED: ATOM     36  H   UNL     1      37.223   9.023 124.220 -0.58 -0.00    +0.000 HD
DOCKED: BRANCH  31  34
DOCKED: ATOM     37  O   UNL     1      37.072   7.345 123.082 -2.16 -0.00    +0.000 OA
DOCKED: ATOM     38  H   UNL     1      36.836   7.175 122.157 -0.07 -0.00    +0.000 HD
DOCKED: ENDBRANCH  31  34
DOCKED: ENDBRANCH  27  30
DOCKED: ENDBRANCH  22  24
DOCKED: ENDBRANCH  19  21
DOCKED: ENDBRANCH   1  19
DOCKED: TORSDOF 10DOCKED: TER
DOCKED: ENDMDL
________________________________________________________________________________


	BEGINNING GENETIC ALGORITHM DOCKING 90 of 100
Run: 90 Seed: 1319588854 2018948234 [ Run 90 of 100 GA/GALS ]
Beginning LAMARCKIAN GENETIC ALGORITHM (LGA), with a maximum of 2500000 energy evaluations.

Final-Value: -18.280


	FINAL GENETIC ALGORITHM DOCKED STATE
	_______________________________________________


Detailed state:  trans 34.949 16.495 123.523 quatxyzw -0.470054 -0.281072 -0.825083 -0.138872 center 1.858 0.218 -0.021 ntor 10 -143.7005 -165.6076 9.1176 -85.8909 -179.5881 141.3471 90.1937 -167.3425 -128.3664 -29.2940
State:	 34.949  16.495 123.523  -0.475 -0.284 -0.833 -164.035   -143.70 -165.61    9.12  -85.89 -179.59  141.35   90.19 -167.34 -128.37  -29.29

DOCKED: MODEL       90
DOCKED: USER    Run = 90
DOCKED: USER    DPF = ligand_dock.biased.dpf
DOCKED: USER  
DOCKED: USER    Estimated Free Energy of Binding    =  -12.31 kcal/mol  [=(1)+(2)+(3)-(4)]
DOCKED: USER    Estimated Inhibition Constant, Ki   =  947.17 pM (picomolar)  [Temperature = 298.15 K]
DOCKED: USER    
DOCKED: USER    (1) Final Intermolecular Energy     =  -15.29 kcal/mol
DOCKED: USER        vdW + Hbond + desolv Energy     =  -15.29 kcal/mol
DOCKED: USER        Electrostatic Energy            =   +0.00 kcal/mol
DOCKED: USER    (2) Final Total Internal Energy     =   -2.99 kcal/mol
DOCKED: USER    (3) Torsional Free Energy           =   +2.98 kcal/mol
DOCKED: USER    (4) Unbound System's Energy  [=(2)] =   -2.99 kcal/mol
DOCKED: USER    
DOCKED: USER    
DOCKED: USER    NEWDPF move ligand.dum.pdbqt
DOCKED: USER    NEWDPF about 1.858000 0.218000 -0.021000
DOCKED: USER    NEWDPF tran0 34.948917 16.495415 123.522643
DOCKED: USER    NEWDPF quaternion0 -0.470054 -0.281072 -0.825083 -0.138872
DOCKED: USER    NEWDPF axisangle0 -0.474654 -0.283822 -0.833156 -164.034849
DOCKED: USER    NEWDPF quat0 -0.474654 -0.283822 -0.833156 -164.034849
DOCKED: USER    NEWDPF dihe0 -143.70 -165.61 9.12 -85.89 -179.59 141.35 90.19 -167.34 -128.37 -29.29 
DOCKED: USER  keepresnum = 1 
DOCKED: USER  
DOCKED: REMARK  Name = 
DOCKED: REMARK  12 active torsions:
DOCKED: REMARK  status: ('A' for Active; 'I' for Inactive)
DOCKED: REMARK    1  A    between atoms: C_2  and  O_3
DOCKED: REMARK    2  A    between atoms: O_3  and  C_4
DOCKED: REMARK    3  A    between atoms: C_4  and  C_5
DOCKED: REMARK    4  A    between atoms: C_10  and  C_11
DOCKED: REMARK    5  A    between atoms: C_11  and  N_12
DOCKED: REMARK    6  A    between atoms: N_12  and  C_13
DOCKED: REMARK    7  A    between atoms: N_12  and  C_15
DOCKED: REMARK    8  A    between atoms: C_13  and  C_14
DOCKED: REMARK    9  A    between atoms: C_15  and  C_16
DOCKED: REMARK   10  A    between atoms: N_21  and  C_22
DOCKED: REMARK   11  A    between atoms: C_25  and  C_26
DOCKED: REMARK   12  A    between atoms: N_27  and  O_28
DOCKED: REMARK                            x       y       z     vdW  Elec       q    Type
DOCKED: REMARK                         _______ _______ _______ _____ _____    ______ ____
DOCKED: USER                              x       y       z     vdW  Elec       q    Type
DOCKED: USER                           _______ _______ _______ _____ _____    ______ ____
DOCKED: ROOT
DOCKED: ATOM      1  C   UNL     1      35.752  17.910 123.769 -0.29 -0.00    +0.000 C 
DOCKED: ENDROOT
DOCKED: BRANCH   1   2
DOCKED: ATOM      2  C   UNL     1      36.064  17.637 122.327 -0.21 -0.00    +0.000 A 
DOCKED: ATOM      3  C   UNL     1      35.062  17.759 121.353 -0.27 -0.00    +0.000 A 
DOCKED: ATOM      4  C   UNL     1      35.337  17.471 120.013 -0.16 -0.00    +0.000 A 
DOCKED: ATOM      5  C   UNL     1      36.617  17.043 119.633 -0.13 -0.00    +0.000 A 
DOCKED: ATOM      6  C   UNL     1      36.902  16.750 118.290 -0.10 -0.00    +0.000 A 
DOCKED: ATOM      7  C   UNL     1      38.184  16.317 117.915 -0.10 -0.00    +0.000 A 
DOCKED: ATOM      8  C   UNL     1      39.183  16.181 118.892 -0.12 -0.00    +0.000 A 
DOCKED: ATOM      9  C   UNL     1      38.907  16.469 120.231 -0.12 -0.00    +0.000 A 
DOCKED: ATOM     10  C   UNL     1      37.629  16.901 120.612 -0.11 -0.00    +0.000 A 
DOCKED: ATOM     11  C   UNL     1      37.343  17.193 121.954 -0.14 -0.00    +0.000 A 
DOCKED: ATOM     12  CM  UNL     1      36.342  17.334 120.982 +0.00 -0.00    +0.000 AC
DOCKED: ATOM     13  CM  UNL     1      37.904  16.610 119.262 +0.00 -0.00    +0.000 AC
DOCKED: BRANCH   7  12
DOCKED: ATOM     14  C   UNL     1      38.503  16.019 116.473 -0.14 -0.00    +0.000 C 
DOCKED: BRANCH  12  13
DOCKED: ATOM     15  N   UNL     1      38.625  14.560 116.270 -0.27 -0.00    +0.000 N 
DOCKED: ATOM     16  H   UNL     1      39.264  14.194 116.975 -0.12 -0.00    +0.000 HD
DOCKED: BRANCH  13  15
DOCKED: ATOM     17  C   UNL     1      39.248  14.245 114.963 -0.33 -0.00    +0.000 C 
DOCKED: ATOM     18  C   UNL     1      40.079  15.412 114.431 -0.26 -0.00    +0.000 C 
DOCKED: ENDBRANCH  13  15
DOCKED: BRANCH  13  17
DOCKED: ATOM     19  C   UNL     1      37.343  13.853 116.517 -0.38 -0.00    +0.000 C 
DOCKED: ATOM     20  C   UNL     1      37.235  13.209 117.907 -0.38 -0.00    +0.000 C 
DOCKED: ENDBRANCH  13  17
DOCKED: ENDBRANCH  12  13
DOCKED: ENDBRANCH   7  12
DOCKED: ENDBRANCH   1   2
DOCKED: BRANCH   1  19
DOCKED: ATOM     21  O   UNL     1      34.747  17.003 124.212 -0.43 -0.00    +0.000 OA
DOCKED: BRANCH  19  21
DOCKED: ATOM     22  O   UNL     1      33.848  14.879 124.244 -0.64 -0.00    +0.000 OA
DOCKED: ATOM     23  C   UNL     1      34.848  15.621 124.036 -0.57 -0.00    +0.000 C 
DOCKED: ATOM     24  N   UNL     1      36.110  15.056 123.660 -0.46 -0.00    +0.000 N 
DOCKED: ATOM     25  H   UNL     1      36.898  15.648 123.663 -0.02 -0.00    +0.000 HD
DOCKED: BRANCH  22  24
DOCKED: ATOM     26  C   UNL     1      36.304  13.683 123.280 -0.50 -0.00    +0.000 A 
DOCKED: ATOM     27  C   UNL     1      35.937  12.665 124.170 -0.34 -0.00    +0.000 A 
DOCKED: ATOM     28  C   UNL     1      36.135  11.323 123.833 -0.54 -0.00    +0.000 A 
DOCKED: ATOM     29  C   UNL     1      36.713  10.972 122.601 -0.59 -0.00    +0.000 A 
DOCKED: ATOM     30  C   UNL     1      37.114  11.995 121.724 -0.49 -0.00    +0.000 A 
DOCKED: ATOM     31  C   UNL     1      36.915  13.338 122.061 -0.41 -0.00    +0.000 A 
DOCKED: ATOM     32  CM  UNL     1      36.520  12.329 122.945 +0.00 -0.00    +0.000 AC
DOCKED: BRANCH  27  30
DOCKED: ATOM     33  C   UNL     1      36.921   9.543 122.260 -0.65 -0.00    +0.000 C 
DOCKED: ATOM     34  N   UNL     1      37.000   8.536 123.276 -0.69 -0.00    +0.000 N 
DOCKED: ATOM     35  O   UNL     1      37.045   9.205 121.052 -2.73 -0.00    +0.000 OA
DOCKED: ATOM     36  H   UNL     1      36.989   8.795 124.226 -0.51 -0.00    +0.000 HD
DOCKED: BRANCH  31  34
DOCKED: ATOM     37  O   UNL     1      37.088   7.228 122.936 -1.95 -0.00    +0.000 OA
DOCKED: ATOM     38  H   UNL     1      37.230   7.151 121.980 -0.14 -0.00    +0.000 HD
DOCKED: ENDBRANCH  31  34
DOCKED: ENDBRANCH  27  30
DOCKED: ENDBRANCH  22  24
DOCKED: ENDBRANCH  19  21
DOCKED: ENDBRANCH   1  19
DOCKED: TORSDOF 10DOCKED: TER
DOCKED: ENDMDL
________________________________________________________________________________


	BEGINNING GENETIC ALGORITHM DOCKING 91 of 100
Run: 91 Seed: 93422861 245861569 [ Run 91 of 100 GA/GALS ]
Beginning LAMARCKIAN GENETIC ALGORITHM (LGA), with a maximum of 2500000 energy evaluations.

Final-Value: -17.744


	FINAL GENETIC ALGORITHM DOCKED STATE
	_______________________________________________


Detailed state:  trans 36.018 17.168 122.176 quatxyzw -0.862473 -0.043158 -0.478740 -0.158387 center 1.858 0.218 -0.021 ntor 10 -141.1711 -131.1560 44.2276 -17.8040 -178.9726 51.5553 -170.8675 129.8130 -84.7249 122.7173
State:	 36.018  17.168 122.176  -0.873 -0.044 -0.485 -161.773   -141.17 -131.16   44.23  -17.80 -178.97   51.56 -170.87  129.81  -84.72  122.72

DOCKED: MODEL       91
DOCKED: USER    Run = 91
DOCKED: USER    DPF = ligand_dock.biased.dpf
DOCKED: USER  
DOCKED: USER    Estimated Free Energy of Binding    =  -12.86 kcal/mol  [=(1)+(2)+(3)-(4)]
DOCKED: USER    Estimated Inhibition Constant, Ki   =  376.16 pM (picomolar)  [Temperature = 298.15 K]
DOCKED: USER    
DOCKED: USER    (1) Final Intermolecular Energy     =  -15.84 kcal/mol
DOCKED: USER        vdW + Hbond + desolv Energy     =  -15.84 kcal/mol
DOCKED: USER        Electrostatic Energy            =   +0.00 kcal/mol
DOCKED: USER    (2) Final Total Internal Energy     =   -1.90 kcal/mol
DOCKED: USER    (3) Torsional Free Energy           =   +2.98 kcal/mol
DOCKED: USER    (4) Unbound System's Energy  [=(2)] =   -1.90 kcal/mol
DOCKED: USER    
DOCKED: USER    
DOCKED: USER    NEWDPF move ligand.dum.pdbqt
DOCKED: USER    NEWDPF about 1.858000 0.218000 -0.021000
DOCKED: USER    NEWDPF tran0 36.017961 17.167538 122.176286
DOCKED: USER    NEWDPF quaternion0 -0.862473 -0.043158 -0.478740 -0.158387
DOCKED: USER    NEWDPF axisangle0 -0.873499 -0.043710 -0.484860 -161.773433
DOCKED: USER    NEWDPF quat0 -0.873499 -0.043710 -0.484860 -161.773433
DOCKED: USER    NEWDPF dihe0 -141.17 -131.16 44.23 -17.80 -178.97 51.56 -170.87 129.81 -84.72 122.72 
DOCKED: USER  keepresnum = 1 
DOCKED: USER  
DOCKED: REMARK  Name = 
DOCKED: REMARK  12 active torsions:
DOCKED: REMARK  status: ('A' for Active; 'I' for Inactive)
DOCKED: REMARK    1  A    between atoms: C_2  and  O_3
DOCKED: REMARK    2  A    between atoms: O_3  and  C_4
DOCKED: REMARK    3  A    between atoms: C_4  and  C_5
DOCKED: REMARK    4  A    between atoms: C_10  and  C_11
DOCKED: REMARK    5  A    between atoms: C_11  and  N_12
DOCKED: REMARK    6  A    between atoms: N_12  and  C_13
DOCKED: REMARK    7  A    between atoms: N_12  and  C_15
DOCKED: REMARK    8  A    between atoms: C_13  and  C_14
DOCKED: REMARK    9  A    between atoms: C_15  and  C_16
DOCKED: REMARK   10  A    between atoms: N_21  and  C_22
DOCKED: REMARK   11  A    between atoms: C_25  and  C_26
DOCKED: REMARK   12  A    between atoms: N_27  and  O_28
DOCKED: REMARK                            x       y       z     vdW  Elec       q    Type
DOCKED: REMARK                         _______ _______ _______ _____ _____    ______ ____
DOCKED: USER                              x       y       z     vdW  Elec       q    Type
DOCKED: USER                           _______ _______ _______ _____ _____    ______ ____
DOCKED: ROOT
DOCKED: ATOM      1  C   UNL     1      37.003  18.274 121.460 -0.14 -0.00    +0.000 C 
DOCKED: ENDROOT
DOCKED: BRANCH   1   2
DOCKED: ATOM      2  C   UNL     1      35.800  18.319 120.563 -0.19 -0.00    +0.000 A 
DOCKED: ATOM      3  C   UNL     1      35.959  18.361 119.170 -0.12 -0.00    +0.000 A 
DOCKED: ATOM      4  C   UNL     1      34.845  18.440 118.331 -0.13 -0.00    +0.000 A 
DOCKED: ATOM      5  C   UNL     1      33.554  18.491 118.877 -0.23 -0.00    +0.000 A 
DOCKED: ATOM      6  C   UNL     1      32.428  18.572 118.042 -0.19 -0.00    +0.000 A 
DOCKED: ATOM      7  C   UNL     1      31.138  18.628 118.594 -0.31 -0.00    +0.000 A 
DOCKED: ATOM      8  C   UNL     1      30.980  18.601 119.989 -0.40 -0.00    +0.000 A 
DOCKED: ATOM      9  C   UNL     1      32.095  18.522 120.827 -0.22 -0.00    +0.000 A 
DOCKED: ATOM     10  C   UNL     1      33.385  18.466 120.282 -0.32 -0.00    +0.000 A 
DOCKED: ATOM     11  C   UNL     1      34.511  18.387 121.116 -0.27 -0.00    +0.000 A 
DOCKED: ATOM     12  CM  UNL     1      34.676  18.411 119.724 +0.00 -0.00    +0.000 AC
DOCKED: ATOM     13  CM  UNL     1      32.263  18.547 119.435 +0.00 -0.00    +0.000 AC
DOCKED: BRANCH   7  12
DOCKED: ATOM     14  C   UNL     1      29.924  18.695 117.705 -0.24 -0.00    +0.000 C 
DOCKED: BRANCH  12  13
DOCKED: ATOM     15  N   UNL     1      28.712  18.337 118.472 -0.31 -0.00    +0.000 N 
DOCKED: ATOM     16  H   UNL     1      28.932  18.411 119.465 -0.52 -0.00    +0.000 HD
DOCKED: BRANCH  13  15
DOCKED: ATOM     17  C   UNL     1      28.331  16.921 118.252 -0.45 -0.00    +0.000 C 
DOCKED: ATOM     18  C   UNL     1      29.528  16.066 117.841 -0.39 -0.00    +0.000 C 
DOCKED: ENDBRANCH  13  15
DOCKED: BRANCH  13  17
DOCKED: ATOM     19  C   UNL     1      27.607  19.304 118.254 -0.27 -0.00    +0.000 C 
DOCKED: ATOM     20  C   UNL     1      27.902  20.724 118.759 -0.26 -0.00    +0.000 C 
DOCKED: ENDBRANCH  13  17
DOCKED: ENDBRANCH  12  13
DOCKED: ENDBRANCH   7  12
DOCKED: ENDBRANCH   1   2
DOCKED: BRANCH   1  19
DOCKED: ATOM     21  O   UNL     1      36.692  17.513 122.623 -0.19 -0.00    +0.000 OA
DOCKED: BRANCH  19  21
DOCKED: ATOM     22  O   UNL     1      37.618  15.722 123.745 -0.37 -0.00    +0.000 OA
DOCKED: ATOM     23  C   UNL     1      36.992  16.153 122.737 -0.30 -0.00    +0.000 C 
DOCKED: ATOM     24  N   UNL     1      36.618  15.266 121.676 -0.23 -0.00    +0.000 N 
DOCKED: ATOM     25  H   UNL     1      36.275  15.663 120.843 -0.01 -0.00    +0.000 HD
DOCKED: BRANCH  22  24
DOCKED: ATOM     26  C   UNL     1      36.708  13.832 121.746 -0.21 -0.00    +0.000 A 
DOCKED: ATOM     27  C   UNL     1      36.325  13.177 122.924 -0.49 -0.00    +0.000 A 
DOCKED: ATOM     28  C   UNL     1      36.423  11.786 123.027 -0.61 -0.00    +0.000 A 
DOCKED: ATOM     29  C   UNL     1      36.916  11.023 121.955 -0.50 -0.00    +0.000 A 
DOCKED: ATOM     30  C   UNL     1      37.333  11.685 120.786 -0.42 -0.00    +0.000 A 
DOCKED: ATOM     31  C   UNL     1      37.234  13.076 120.684 -0.42 -0.00    +0.000 A 
DOCKED: ATOM     32  CM  UNL     1      36.823  12.430 121.854 +0.00 -0.00    +0.000 AC
DOCKED: BRANCH  27  30
DOCKED: ATOM     33  C   UNL     1      37.018   9.548 122.080 -0.62 -0.00    +0.000 C 
DOCKED: ATOM     34  N   UNL     1      37.074   8.909 123.361 -0.62 -0.00    +0.000 N 
DOCKED: ATOM     35  O   UNL     1      37.072   8.839 121.039 -2.69 -0.00    +0.000 OA
DOCKED: ATOM     36  H   UNL     1      37.119   9.455 124.180 -0.58 -0.00    +0.000 HD
DOCKED: BRANCH  31  34
DOCKED: ATOM     37  O   UNL     1      37.065   7.557 123.452 -2.21 -0.00    +0.000 OA
DOCKED: ATOM     38  H   UNL     1      37.668   7.185 122.789 -0.36 -0.00    +0.000 HD
DOCKED: ENDBRANCH  31  34
DOCKED: ENDBRANCH  27  30
DOCKED: ENDBRANCH  22  24
DOCKED: ENDBRANCH  19  21
DOCKED: ENDBRANCH   1  19
DOCKED: TORSDOF 10DOCKED: TER
DOCKED: ENDMDL
________________________________________________________________________________


	BEGINNING GENETIC ALGORITHM DOCKING 92 of 100
Run: 92 Seed: 1031767058 659538616 [ Run 92 of 100 GA/GALS ]
Beginning LAMARCKIAN GENETIC ALGORITHM (LGA), with a maximum of 2500000 energy evaluations.

Final-Value: -16.921


	FINAL GENETIC ALGORITHM DOCKED STATE
	_______________________________________________


Detailed state:  trans 36.950 17.645 122.724 quatxyzw 0.062165 0.355754 0.296696 0.884051 center 1.858 0.218 -0.021 ntor 10 112.0645 -161.3646 12.1271 -174.6529 166.2862 162.1896 -105.7503 -167.8984 92.4474 -129.9426
State:	 36.950  17.645 122.724   0.133  0.761  0.635 55.730    112.06 -161.36   12.13 -174.65  166.29  162.19 -105.75 -167.90   92.45 -129.94

DOCKED: MODEL       92
DOCKED: USER    Run = 92
DOCKED: USER    DPF = ligand_dock.biased.dpf
DOCKED: USER  
DOCKED: USER    Estimated Free Energy of Binding    =  -11.68 kcal/mol  [=(1)+(2)+(3)-(4)]
DOCKED: USER    Estimated Inhibition Constant, Ki   =    2.74 nM (nanomolar)  [Temperature = 298.15 K]
DOCKED: USER    
DOCKED: USER    (1) Final Intermolecular Energy     =  -14.66 kcal/mol
DOCKED: USER        vdW + Hbond + desolv Energy     =  -14.66 kcal/mol
DOCKED: USER        Electrostatic Energy            =   +0.00 kcal/mol
DOCKED: USER    (2) Final Total Internal Energy     =   -2.26 kcal/mol
DOCKED: USER    (3) Torsional Free Energy           =   +2.98 kcal/mol
DOCKED: USER    (4) Unbound System's Energy  [=(2)] =   -2.26 kcal/mol
DOCKED: USER    
DOCKED: USER    
DOCKED: USER    NEWDPF move ligand.dum.pdbqt
DOCKED: USER    NEWDPF about 1.858000 0.218000 -0.021000
DOCKED: USER    NEWDPF tran0 36.950083 17.644681 122.724000
DOCKED: USER    NEWDPF quaternion0 0.062165 0.355754 0.296696 0.884051
DOCKED: USER    NEWDPF axisangle0 0.133003 0.761149 0.634793 55.730122
DOCKED: USER    NEWDPF quat0 0.133003 0.761149 0.634793 55.730122
DOCKED: USER    NEWDPF dihe0 112.06 -161.36 12.13 -174.65 166.29 162.19 -105.75 -167.90 92.45 -129.94 
DOCKED: USER  keepresnum = 1 
DOCKED: USER  
DOCKED: REMARK  Name = 
DOCKED: REMARK  12 active torsions:
DOCKED: REMARK  status: ('A' for Active; 'I' for Inactive)
DOCKED: REMARK    1  A    between atoms: C_2  and  O_3
DOCKED: REMARK    2  A    between atoms: O_3  and  C_4
DOCKED: REMARK    3  A    between atoms: C_4  and  C_5
DOCKED: REMARK    4  A    between atoms: C_10  and  C_11
DOCKED: REMARK    5  A    between atoms: C_11  and  N_12
DOCKED: REMARK    6  A    between atoms: N_12  and  C_13
DOCKED: REMARK    7  A    between atoms: N_12  and  C_15
DOCKED: REMARK    8  A    between atoms: C_13  and  C_14
DOCKED: REMARK    9  A    between atoms: C_15  and  C_16
DOCKED: REMARK   10  A    between atoms: N_21  and  C_22
DOCKED: REMARK   11  A    between atoms: C_25  and  C_26
DOCKED: REMARK   12  A    between atoms: N_27  and  O_28
DOCKED: REMARK                            x       y       z     vdW  Elec       q    Type
DOCKED: REMARK                         _______ _______ _______ _____ _____    ______ ____
DOCKED: USER                              x       y       z     vdW  Elec       q    Type
DOCKED: USER                           _______ _______ _______ _____ _____    ______ ____
DOCKED: ROOT
DOCKED: ATOM      1  C   UNL     1      35.598  17.665 123.662 -0.32 -0.00    +0.000 C 
DOCKED: ENDROOT
DOCKED: BRANCH   1   2
DOCKED: ATOM      2  C   UNL     1      35.045  18.084 122.331 -0.29 -0.00    +0.000 A 
DOCKED: ATOM      3  C   UNL     1      35.851  18.785 121.421 -0.19 -0.00    +0.000 A 
DOCKED: ATOM      4  C   UNL     1      35.332  19.209 120.195 -0.16 -0.00    +0.000 A 
DOCKED: ATOM      5  C   UNL     1      33.993  18.949 119.868 -0.26 -0.00    +0.000 A 
DOCKED: ATOM      6  C   UNL     1      33.463  19.372 118.640 -0.21 -0.00    +0.000 A 
DOCKED: ATOM      7  C   UNL     1      32.120  19.113 118.320 -0.23 -0.00    +0.000 A 
DOCKED: ATOM      8  C   UNL     1      31.310  18.424 119.236 -0.40 -0.00    +0.000 A 
DOCKED: ATOM      9  C   UNL     1      31.830  18.001 120.461 -0.24 -0.00    +0.000 A 
DOCKED: ATOM     10  C   UNL     1      33.169  18.257 120.787 -0.32 -0.00    +0.000 A 
DOCKED: ATOM     11  C   UNL     1      33.700  17.834 122.015 -0.28 -0.00    +0.000 A 
DOCKED: ATOM     12  CM  UNL     1      34.515  18.519 121.103 +0.00 -0.00    +0.000 AC
DOCKED: ATOM     13  CM  UNL     1      32.647  18.686 119.552 +0.00 -0.00    +0.000 AC
DOCKED: BRANCH   7  12
DOCKED: ATOM     14  C   UNL     1      31.548  19.548 116.996 -0.11 -0.00    +0.000 C 
DOCKED: BRANCH  12  13
DOCKED: ATOM     15  N   UNL     1      31.063  20.942 117.084 -0.09 -0.00    +0.000 N 
DOCKED: ATOM     16  H   UNL     1      30.183  21.004 116.573 +0.00 -0.00    +0.000 HD
DOCKED: BRANCH  13  15
DOCKED: ATOM     17  C   UNL     1      31.987  21.880 116.404 -0.06 -0.00    +0.000 C 
DOCKED: ATOM     18  C   UNL     1      33.173  22.256 117.291 -0.11 -0.00    +0.000 C 
DOCKED: ENDBRANCH  13  15
DOCKED: BRANCH  13  17
DOCKED: ATOM     19  C   UNL     1      30.723  21.327 118.476 -0.23 -0.00    +0.000 C 
DOCKED: ATOM     20  C   UNL     1      29.240  21.150 118.835 -0.30 -0.00    +0.000 C 
DOCKED: ENDBRANCH  13  17
DOCKED: ENDBRANCH  12  13
DOCKED: ENDBRANCH   7  12
DOCKED: ENDBRANCH   1   2
DOCKED: BRANCH   1  19
DOCKED: ATOM     21  O   UNL     1      36.939  17.217 123.492 -0.26 -0.00    +0.000 OA
DOCKED: BRANCH  19  21
DOCKED: ATOM     22  O   UNL     1      38.455  15.496 123.234 -0.37 -0.00    +0.000 OA
DOCKED: ATOM     23  C   UNL     1      37.258  15.895 123.172 -0.34 -0.00    +0.000 C 
DOCKED: ATOM     24  N   UNL     1      36.218  15.014 122.730 -0.35 -0.00    +0.000 N 
DOCKED: ATOM     25  H   UNL     1      35.333  15.404 122.545 -0.02 -0.00    +0.000 HD
DOCKED: BRANCH  22  24
DOCKED: ATOM     26  C   UNL     1      36.379  13.598 122.540 -0.33 -0.00    +0.000 A 
DOCKED: ATOM     27  C   UNL     1      35.805  12.711 123.462 -0.51 -0.00    +0.000 A 
DOCKED: ATOM     28  C   UNL     1      35.965  11.330 123.313 -0.62 -0.00    +0.000 A 
DOCKED: ATOM     29  C   UNL     1      36.710  10.808 122.242 -0.57 -0.00    +0.000 A 
DOCKED: ATOM     30  C   UNL     1      37.315  11.700 121.338 -0.41 -0.00    +0.000 A 
DOCKED: ATOM     31  C   UNL     1      37.154  13.081 121.487 -0.43 -0.00    +0.000 A 
DOCKED: ATOM     32  CM  UNL     1      36.555  12.204 122.397 +0.00 -0.00    +0.000 AC
DOCKED: BRANCH  27  30
DOCKED: ATOM     33  C   UNL     1      36.875   9.341 122.099 -0.68 -0.00    +0.000 C 
DOCKED: ATOM     34  N   UNL     1      37.019   8.490 123.242 -0.70 -0.00    +0.000 N 
DOCKED: ATOM     35  O   UNL     1      36.903   8.828 120.947 -2.66 -0.00    +0.000 OA
DOCKED: ATOM     36  H   UNL     1      37.085   8.885 124.142 -0.52 -0.00    +0.000 HD
DOCKED: BRANCH  31  34
DOCKED: ATOM     37  O   UNL     1      37.066   7.145 123.092 -1.96 -0.00    +0.000 OA
DOCKED: ATOM     38  H   UNL     1      37.182   6.928 122.154 -0.18 -0.00    +0.000 HD
DOCKED: ENDBRANCH  31  34
DOCKED: ENDBRANCH  27  30
DOCKED: ENDBRANCH  22  24
DOCKED: ENDBRANCH  19  21
DOCKED: ENDBRANCH   1  19
DOCKED: TORSDOF 10DOCKED: TER
DOCKED: ENDMDL
________________________________________________________________________________


	BEGINNING GENETIC ALGORITHM DOCKING 93 of 100
Run: 93 Seed: 209324328 1684203662 [ Run 93 of 100 GA/GALS ]
Beginning LAMARCKIAN GENETIC ALGORITHM (LGA), with a maximum of 2500000 energy evaluations.

Final-Value: -17.108


	FINAL GENETIC ALGORITHM DOCKED STATE
	_______________________________________________


Detailed state:  trans 35.892 17.191 123.036 quatxyzw -0.150857 -0.692501 -0.419111 -0.567477 center 1.858 0.218 -0.021 ntor 10 -151.5785 61.4451 9.4292 -179.8267 -173.4035 2.1125 81.5806 -70.2279 110.7370 120.1768
State:	 35.892  17.191 123.036  -0.183 -0.841 -0.509 -110.851   -151.58   61.45    9.43 -179.83 -173.40    2.11   81.58  -70.23  110.74  120.18

DOCKED: MODEL       93
DOCKED: USER    Run = 93
DOCKED: USER    DPF = ligand_dock.biased.dpf
DOCKED: USER  
DOCKED: USER    Estimated Free Energy of Binding    =  -11.83 kcal/mol  [=(1)+(2)+(3)-(4)]
DOCKED: USER    Estimated Inhibition Constant, Ki   =    2.13 nM (nanomolar)  [Temperature = 298.15 K]
DOCKED: USER    
DOCKED: USER    (1) Final Intermolecular Energy     =  -14.81 kcal/mol
DOCKED: USER        vdW + Hbond + desolv Energy     =  -14.81 kcal/mol
DOCKED: USER        Electrostatic Energy            =   +0.00 kcal/mol
DOCKED: USER    (2) Final Total Internal Energy     =   -2.30 kcal/mol
DOCKED: USER    (3) Torsional Free Energy           =   +2.98 kcal/mol
DOCKED: USER    (4) Unbound System's Energy  [=(2)] =   -2.30 kcal/mol
DOCKED: USER    
DOCKED: USER    
DOCKED: USER    NEWDPF move ligand.dum.pdbqt
DOCKED: USER    NEWDPF about 1.858000 0.218000 -0.021000
DOCKED: USER    NEWDPF tran0 35.891685 17.191241 123.036074
DOCKED: USER    NEWDPF quaternion0 -0.150857 -0.692501 -0.419111 -0.567477
DOCKED: USER    NEWDPF axisangle0 -0.183214 -0.841037 -0.509007 -110.851084
DOCKED: USER    NEWDPF quat0 -0.183214 -0.841037 -0.509007 -110.851084
DOCKED: USER    NEWDPF dihe0 -151.58 61.45 9.43 -179.83 -173.40 2.11 81.58 -70.23 110.74 120.18 
DOCKED: USER  keepresnum = 1 
DOCKED: USER  
DOCKED: REMARK  Name = 
DOCKED: REMARK  12 active torsions:
DOCKED: REMARK  status: ('A' for Active; 'I' for Inactive)
DOCKED: REMARK    1  A    between atoms: C_2  and  O_3
DOCKED: REMARK    2  A    between atoms: O_3  and  C_4
DOCKED: REMARK    3  A    between atoms: C_4  and  C_5
DOCKED: REMARK    4  A    between atoms: C_10  and  C_11
DOCKED: REMARK    5  A    between atoms: C_11  and  N_12
DOCKED: REMARK    6  A    between atoms: N_12  and  C_13
DOCKED: REMARK    7  A    between atoms: N_12  and  C_15
DOCKED: REMARK    8  A    between atoms: C_13  and  C_14
DOCKED: REMARK    9  A    between atoms: C_15  and  C_16
DOCKED: REMARK   10  A    between atoms: N_21  and  C_22
DOCKED: REMARK   11  A    between atoms: C_25  and  C_26
DOCKED: REMARK   12  A    between atoms: N_27  and  O_28
DOCKED: REMARK                            x       y       z     vdW  Elec       q    Type
DOCKED: REMARK                         _______ _______ _______ _____ _____    ______ ____
DOCKED: USER                              x       y       z     vdW  Elec       q    Type
DOCKED: USER                           _______ _______ _______ _____ _____    ______ ____
DOCKED: ROOT
DOCKED: ATOM      1  C   UNL     1      34.501  17.964 122.617 -0.34 -0.00    +0.000 C 
DOCKED: ENDROOT
DOCKED: BRANCH   1   2
DOCKED: ATOM      2  C   UNL     1      35.207  17.881 121.295 -0.26 -0.00    +0.000 A 
DOCKED: ATOM      3  C   UNL     1      35.173  18.967 120.407 -0.20 -0.00    +0.000 A 
DOCKED: ATOM      4  C   UNL     1      35.799  18.883 119.161 -0.13 -0.00    +0.000 A 
DOCKED: ATOM      5  C   UNL     1      36.456  17.704 118.779 -0.09 -0.00    +0.000 A 
DOCKED: ATOM      6  C   UNL     1      37.086  17.611 117.529 -0.05 -0.00    +0.000 A 
DOCKED: ATOM      7  C   UNL     1      37.739  16.426 117.150 -0.09 -0.00    +0.000 A 
DOCKED: ATOM      8  C   UNL     1      37.761  15.335 118.033 -0.17 -0.00    +0.000 A 
DOCKED: ATOM      9  C   UNL     1      37.135  15.420 119.279 -0.19 -0.00    +0.000 A 
DOCKED: ATOM     10  C   UNL     1      36.481  16.599 119.662 -0.15 -0.00    +0.000 A 
DOCKED: ATOM     11  C   UNL     1      35.850  16.693 120.912 -0.11 -0.00    +0.000 A 
DOCKED: ATOM     12  CM  UNL     1      35.828  17.788 120.036 +0.00 -0.00    +0.000 AC
DOCKED: ATOM     13  CM  UNL     1      37.109  16.516 118.405 +0.00 -0.00    +0.000 AC
DOCKED: BRANCH   7  12
DOCKED: ATOM     14  C   UNL     1      38.433  16.324 115.818 -0.12 -0.00    +0.000 C 
DOCKED: BRANCH  12  13
DOCKED: ATOM     15  N   UNL     1      39.893  16.195 116.014 -0.15 -0.00    +0.000 N 
DOCKED: ATOM     16  H   UNL     1      40.360  16.693 115.256 +0.00 -0.00    +0.000 HD
DOCKED: BRANCH  13  15
DOCKED: ATOM     17  C   UNL     1      40.333  14.785 115.896 -0.34 -0.00    +0.000 C 
DOCKED: ATOM     18  C   UNL     1      39.258  13.903 115.261 -0.44 -0.00    +0.000 C 
DOCKED: ENDBRANCH  13  15
DOCKED: BRANCH  13  17
DOCKED: ATOM     19  C   UNL     1      40.352  16.873 117.253 -0.11 -0.00    +0.000 C 
DOCKED: ATOM     20  C   UNL     1      41.203  15.990 118.177 -0.17 -0.00    +0.000 C 
DOCKED: ENDBRANCH  13  17
DOCKED: ENDBRANCH  12  13
DOCKED: ENDBRANCH   7  12
DOCKED: ENDBRANCH   1   2
DOCKED: BRANCH   1  19
DOCKED: ATOM     21  O   UNL     1      35.192  17.162 123.569 -0.36 -0.00    +0.000 OA
DOCKED: BRANCH  19  21
DOCKED: ATOM     22  O   UNL     1      34.178  15.100 123.774 -0.67 -0.00    +0.000 OA
DOCKED: ATOM     23  C   UNL     1      35.216  15.767 123.506 -0.49 -0.00    +0.000 C 
DOCKED: ATOM     24  N   UNL     1      36.444  15.105 123.176 -0.41 -0.00    +0.000 N 
DOCKED: ATOM     25  H   UNL     1      37.262  15.650 123.130 -0.01 -0.00    +0.000 HD
DOCKED: BRANCH  22  24
DOCKED: ATOM     26  C   UNL     1      36.560  13.697 122.908 -0.46 -0.00    +0.000 A 
DOCKED: ATOM     27  C   UNL     1      36.316  12.778 123.938 -0.50 -0.00    +0.000 A 
DOCKED: ATOM     28  C   UNL     1      36.443  11.406 123.710 -0.60 -0.00    +0.000 A 
DOCKED: ATOM     29  C   UNL     1      36.827  10.923 122.447 -0.55 -0.00    +0.000 A 
DOCKED: ATOM     30  C   UNL     1      37.107  11.847 121.424 -0.48 -0.00    +0.000 A 
DOCKED: ATOM     31  C   UNL     1      36.978  13.220 121.653 -0.39 -0.00    +0.000 A 
DOCKED: ATOM     32  CM  UNL     1      36.705  12.312 122.680 +0.00 -0.00    +0.000 AC
DOCKED: BRANCH  27  30
DOCKED: ATOM     33  C   UNL     1      36.962   9.463 122.221 -0.65 -0.00    +0.000 C 
DOCKED: ATOM     34  N   UNL     1      37.046   8.542 123.315 -0.69 -0.00    +0.000 N 
DOCKED: ATOM     35  O   UNL     1      37.018   9.020 121.041 -2.71 -0.00    +0.000 OA
DOCKED: ATOM     36  H   UNL     1      37.089   8.880 124.239 -0.54 -0.00    +0.000 HD
DOCKED: BRANCH  31  34
DOCKED: ATOM     37  O   UNL     1      37.067   7.207 123.085 -2.03 -0.00    +0.000 OA
DOCKED: ATOM     38  H   UNL     1      37.168   7.045 122.134 -0.15 -0.00    +0.000 HD
DOCKED: ENDBRANCH  31  34
DOCKED: ENDBRANCH  27  30
DOCKED: ENDBRANCH  22  24
DOCKED: ENDBRANCH  19  21
DOCKED: ENDBRANCH   1  19
DOCKED: TORSDOF 10DOCKED: TER
DOCKED: ENDMDL
________________________________________________________________________________


	BEGINNING GENETIC ALGORITHM DOCKING 94 of 100
Run: 94 Seed: 1879308876 305345197 [ Run 94 of 100 GA/GALS ]
Beginning LAMARCKIAN GENETIC ALGORITHM (LGA), with a maximum of 2500000 energy evaluations.

Final-Value: -18.136


	FINAL GENETIC ALGORITHM DOCKED STATE
	_______________________________________________


Detailed state:  trans 36.728 16.964 123.251 quatxyzw 0.885341 -0.054638 -0.398081 0.233919 center 1.858 0.218 -0.021 ntor 10 -180.0000 -130.3378 66.2106 -13.9979 156.6774 -88.3296 -30.2933 114.0512 -95.6424 175.3544
State:	 36.728  16.964 123.251   0.911 -0.056 -0.409 152.944   -180.00 -130.34   66.21  -14.00  156.68  -88.33  -30.29  114.05  -95.64  175.35

DOCKED: MODEL       94
DOCKED: USER    Run = 94
DOCKED: USER    DPF = ligand_dock.biased.dpf
DOCKED: USER  
DOCKED: USER    Estimated Free Energy of Binding    =  -13.38 kcal/mol  [=(1)+(2)+(3)-(4)]
DOCKED: USER    Estimated Inhibition Constant, Ki   =  154.67 pM (picomolar)  [Temperature = 298.15 K]
DOCKED: USER    
DOCKED: USER    (1) Final Intermolecular Energy     =  -16.37 kcal/mol
DOCKED: USER        vdW + Hbond + desolv Energy     =  -16.37 kcal/mol
DOCKED: USER        Electrostatic Energy            =   +0.00 kcal/mol
DOCKED: USER    (2) Final Total Internal Energy     =   -1.77 kcal/mol
DOCKED: USER    (3) Torsional Free Energy           =   +2.98 kcal/mol
DOCKED: USER    (4) Unbound System's Energy  [=(2)] =   -1.77 kcal/mol
DOCKED: USER    
DOCKED: USER    
DOCKED: USER    NEWDPF move ligand.dum.pdbqt
DOCKED: USER    NEWDPF about 1.858000 0.218000 -0.021000
DOCKED: USER    NEWDPF tran0 36.727757 16.963877 123.250635
DOCKED: USER    NEWDPF quaternion0 0.885341 -0.054638 -0.398081 0.233919
DOCKED: USER    NEWDPF axisangle0 0.910604 -0.056197 -0.409441 152.944203
DOCKED: USER    NEWDPF quat0 0.910604 -0.056197 -0.409441 152.944203
DOCKED: USER    NEWDPF dihe0 -180.00 -130.34 66.21 -14.00 156.68 -88.33 -30.29 114.05 -95.64 175.35 
DOCKED: USER  keepresnum = 1 
DOCKED: USER  
DOCKED: REMARK  Name = 
DOCKED: REMARK  12 active torsions:
DOCKED: REMARK  status: ('A' for Active; 'I' for Inactive)
DOCKED: REMARK    1  A    between atoms: C_2  and  O_3
DOCKED: REMARK    2  A    between atoms: O_3  and  C_4
DOCKED: REMARK    3  A    between atoms: C_4  and  C_5
DOCKED: REMARK    4  A    between atoms: C_10  and  C_11
DOCKED: REMARK    5  A    between atoms: C_11  and  N_12
DOCKED: REMARK    6  A    between atoms: N_12  and  C_13
DOCKED: REMARK    7  A    between atoms: N_12  and  C_15
DOCKED: REMARK    8  A    between atoms: C_13  and  C_14
DOCKED: REMARK    9  A    between atoms: C_15  and  C_16
DOCKED: REMARK   10  A    between atoms: N_21  and  C_22
DOCKED: REMARK   11  A    between atoms: C_25  and  C_26
DOCKED: REMARK   12  A    between atoms: N_27  and  O_28
DOCKED: REMARK                            x       y       z     vdW  Elec       q    Type
DOCKED: REMARK                         _______ _______ _______ _____ _____    ______ ____
DOCKED: USER                              x       y       z     vdW  Elec       q    Type
DOCKED: USER                           _______ _______ _______ _____ _____    ______ ____
DOCKED: ROOT
DOCKED: ATOM      1  C   UNL     1      35.789  18.218 122.749 -0.26 -0.00    +0.000 C 
DOCKED: ENDROOT
DOCKED: BRANCH   1   2
DOCKED: ATOM      2  C   UNL     1      35.224  17.949 124.113 -0.29 -0.00    +0.000 A 
DOCKED: ATOM      3  C   UNL     1      34.249  16.955 124.289 -0.41 -0.00    +0.000 A 
DOCKED: ATOM      4  C   UNL     1      33.693  16.723 125.550 -0.28 -0.00    +0.000 A 
DOCKED: ATOM      5  C   UNL     1      34.096  17.494 126.650 -0.30 -0.00    +0.000 A 
DOCKED: ATOM      6  C   UNL     1      33.542  17.269 127.920 -0.31 -0.00    +0.000 A 
DOCKED: ATOM      7  C   UNL     1      33.945  18.046 129.018 -0.15 -0.00    +0.000 A 
DOCKED: ATOM      8  C   UNL     1      34.910  19.050 128.839 -0.09 -0.00    +0.000 A 
DOCKED: ATOM      9  C   UNL     1      35.465  19.281 127.578 -0.12 -0.00    +0.000 A 
DOCKED: ATOM     10  C   UNL     1      35.066  18.509 126.478 -0.20 -0.00    +0.000 A 
DOCKED: ATOM     11  C   UNL     1      35.619  18.733 125.208 -0.21 -0.00    +0.000 A 
DOCKED: ATOM     12  CM  UNL     1      34.658  17.727 125.381 -0.42 -0.00    +0.000 AC
DOCKED: ATOM     13  CM  UNL     1      34.504  18.275 127.747 +0.00 -0.00    +0.000 AC
DOCKED: BRANCH   7  12
DOCKED: ATOM     14  C   UNL     1      33.370  17.799 130.388 -0.17 -0.00    +0.000 C 
DOCKED: BRANCH  12  13
DOCKED: ATOM     15  N   UNL     1      32.857  16.415 130.482 -0.29 -0.00    +0.000 N 
DOCKED: ATOM     16  H   UNL     1      33.313  15.859 129.760 -0.53 -0.00    +0.000 HD
DOCKED: BRANCH  13  15
DOCKED: ATOM     17  C   UNL     1      31.408  16.353 130.179 -0.36 -0.00    +0.000 C 
DOCKED: ATOM     18  C   UNL     1      30.763  17.739 130.185 -0.37 -0.00    +0.000 C 
DOCKED: ENDBRANCH  13  15
DOCKED: BRANCH  13  17
DOCKED: ATOM     19  C   UNL     1      33.239  15.764 131.760 -0.24 -0.00    +0.000 C 
DOCKED: ATOM     20  C   UNL     1      34.752  15.581 131.948 -0.27 -0.00    +0.000 C 
DOCKED: ENDBRANCH  13  17
DOCKED: ENDBRANCH  12  13
DOCKED: ENDBRANCH   7  12
DOCKED: ENDBRANCH   1   2
DOCKED: BRANCH   1  19
DOCKED: ATOM     21  O   UNL     1      36.991  17.473 122.584 -0.18 -0.00    +0.000 OA
DOCKED: BRANCH  19  21
DOCKED: ATOM     22  O   UNL     1      37.482  15.823 121.048 -0.22 -0.00    +0.000 OA
DOCKED: ATOM     23  C   UNL     1      37.001  16.138 122.172 -0.27 -0.00    +0.000 C 
DOCKED: ATOM     24  N   UNL     1      36.420  15.142 123.023 -0.39 -0.00    +0.000 N 
DOCKED: ATOM     25  H   UNL     1      35.918  15.448 123.813 -0.02 -0.00    +0.000 HD
DOCKED: BRANCH  22  24
DOCKED: ATOM     26  C   UNL     1      36.521  13.725 122.800 -0.44 -0.00    +0.000 A 
DOCKED: ATOM     27  C   UNL     1      35.873  12.844 123.676 -0.51 -0.00    +0.000 A 
DOCKED: ATOM     28  C   UNL     1      35.973  11.462 123.496 -0.62 -0.00    +0.000 A 
DOCKED: ATOM     29  C   UNL     1      36.732  10.931 122.438 -0.57 -0.00    +0.000 A 
DOCKED: ATOM     30  C   UNL     1      37.411  11.816 121.581 -0.38 -0.00    +0.000 A 
DOCKED: ATOM     31  C   UNL     1      37.310  13.199 121.762 -0.43 -0.00    +0.000 A 
DOCKED: ATOM     32  CM  UNL     1      36.637  12.329 122.626 +0.00 -0.00    +0.000 AC
DOCKED: BRANCH  27  30
DOCKED: ATOM     33  C   UNL     1      36.832   9.462 122.262 -0.68 -0.00    +0.000 C 
DOCKED: ATOM     34  N   UNL     1      37.098   8.593 123.369 -0.66 -0.00    +0.000 N 
DOCKED: ATOM     35  O   UNL     1      36.696   8.964 121.111 -2.62 -0.00    +0.000 OA
DOCKED: ATOM     36  H   UNL     1      37.290   8.974 124.257 -0.58 -0.00    +0.000 HD
DOCKED: BRANCH  31  34
DOCKED: ATOM     37  O   UNL     1      37.084   7.249 123.202 -2.04 -0.00    +0.000 OA
DOCKED: ATOM     38  H   UNL     1      37.816   6.988 122.621 -0.49 -0.00    +0.000 HD
DOCKED: ENDBRANCH  31  34
DOCKED: ENDBRANCH  27  30
DOCKED: ENDBRANCH  22  24
DOCKED: ENDBRANCH  19  21
DOCKED: ENDBRANCH   1  19
DOCKED: TORSDOF 10DOCKED: TER
DOCKED: ENDMDL
________________________________________________________________________________


	BEGINNING GENETIC ALGORITHM DOCKING 95 of 100
Run: 95 Seed: 914203757 1069113601 [ Run 95 of 100 GA/GALS ]
Beginning LAMARCKIAN GENETIC ALGORITHM (LGA), with a maximum of 2500000 energy evaluations.

Final-Value: -18.515


	FINAL GENETIC ALGORITHM DOCKED STATE
	_______________________________________________


Detailed state:  trans 36.852 16.948 123.113 quatxyzw 0.891393 0.004885 -0.365364 0.268148 center 1.858 0.218 -0.021 ntor 10 72.0956 150.4754 178.8380 143.8935 -180.0000 146.0558 172.6955 -93.3897 -131.5060 -166.7061
State:	 36.852  16.948 123.113   0.925  0.005 -0.379 148.892     72.10  150.48  178.84  143.89 -180.00  146.06  172.70  -93.39 -131.51 -166.71

DOCKED: MODEL       95
DOCKED: USER    Run = 95
DOCKED: USER    DPF = ligand_dock.biased.dpf
DOCKED: USER  
DOCKED: USER    Estimated Free Energy of Binding    =  -13.90 kcal/mol  [=(1)+(2)+(3)-(4)]
DOCKED: USER    Estimated Inhibition Constant, Ki   =   64.49 pM (picomolar)  [Temperature = 298.15 K]
DOCKED: USER    
DOCKED: USER    (1) Final Intermolecular Energy     =  -16.89 kcal/mol
DOCKED: USER        vdW + Hbond + desolv Energy     =  -16.89 kcal/mol
DOCKED: USER        Electrostatic Energy            =   +0.00 kcal/mol
DOCKED: USER    (2) Final Total Internal Energy     =   -1.63 kcal/mol
DOCKED: USER    (3) Torsional Free Energy           =   +2.98 kcal/mol
DOCKED: USER    (4) Unbound System's Energy  [=(2)] =   -1.63 kcal/mol
DOCKED: USER    
DOCKED: USER    
DOCKED: USER    NEWDPF move ligand.dum.pdbqt
DOCKED: USER    NEWDPF about 1.858000 0.218000 -0.021000
DOCKED: USER    NEWDPF tran0 36.852177 16.947542 123.112582
DOCKED: USER    NEWDPF quaternion0 0.891393 0.004885 -0.365364 0.268148
DOCKED: USER    NEWDPF axisangle0 0.925279 0.005071 -0.379253 148.891778
DOCKED: USER    NEWDPF quat0 0.925279 0.005071 -0.379253 148.891778
DOCKED: USER    NEWDPF dihe0 72.10 150.48 178.84 143.89 -180.00 146.06 172.70 -93.39 -131.51 -166.71 
DOCKED: USER  keepresnum = 1 
DOCKED: USER  
DOCKED: REMARK  Name = 
DOCKED: REMARK  12 active torsions:
DOCKED: REMARK  status: ('A' for Active; 'I' for Inactive)
DOCKED: REMARK    1  A    between atoms: C_2  and  O_3
DOCKED: REMARK    2  A    between atoms: O_3  and  C_4
DOCKED: REMARK    3  A    between atoms: C_4  and  C_5
DOCKED: REMARK    4  A    between atoms: C_10  and  C_11
DOCKED: REMARK    5  A    between atoms: C_11  and  N_12
DOCKED: REMARK    6  A    between atoms: N_12  and  C_13
DOCKED: REMARK    7  A    between atoms: N_12  and  C_15
DOCKED: REMARK    8  A    between atoms: C_13  and  C_14
DOCKED: REMARK    9  A    between atoms: C_15  and  C_16
DOCKED: REMARK   10  A    between atoms: N_21  and  C_22
DOCKED: REMARK   11  A    between atoms: C_25  and  C_26
DOCKED: REMARK   12  A    between atoms: N_27  and  O_28
DOCKED: REMARK                            x       y       z     vdW  Elec       q    Type
DOCKED: REMARK                         _______ _______ _______ _____ _____    ______ ____
DOCKED: USER                              x       y       z     vdW  Elec       q    Type
DOCKED: USER                           _______ _______ _______ _____ _____    ______ ____
DOCKED: ROOT
DOCKED: ATOM      1  C   UNL     1      35.879  18.190 122.648 -0.25 -0.00    +0.000 C 
DOCKED: ENDROOT
DOCKED: BRANCH   1   2
DOCKED: ATOM      2  C   UNL     1      35.212  17.747 123.917 -0.31 -0.00    +0.000 A 
DOCKED: ATOM      3  C   UNL     1      34.603  16.486 123.991 -0.45 -0.00    +0.000 A 
DOCKED: ATOM      4  C   UNL     1      33.949  16.082 125.158 -0.36 -0.00    +0.000 A 
DOCKED: ATOM      5  C   UNL     1      33.885  16.942 126.264 -0.35 -0.00    +0.000 A 
DOCKED: ATOM      6  C   UNL     1      33.229  16.544 127.440 -0.39 -0.00    +0.000 A 
DOCKED: ATOM      7  C   UNL     1      33.163  17.412 128.542 -0.28 -0.00    +0.000 A 
DOCKED: ATOM      8  C   UNL     1      33.761  18.679 128.463 -0.13 -0.00    +0.000 A 
DOCKED: ATOM      9  C   UNL     1      34.414  19.082 127.296 -0.15 -0.00    +0.000 A 
DOCKED: ATOM     10  C   UNL     1      34.483  18.222 126.191 -0.28 -0.00    +0.000 A 
DOCKED: ATOM     11  C   UNL     1      35.137  18.618 125.015 -0.25 -0.00    +0.000 A 
DOCKED: ATOM     12  CM  UNL     1      34.545  17.350 125.089 -0.38 -0.00    +0.000 AC
DOCKED: ATOM     13  CM  UNL     1      33.822  17.814 127.366 -0.00 -0.00    +0.000 AC
DOCKED: BRANCH   7  12
DOCKED: ATOM     14  C   UNL     1      32.478  16.986 129.814 -0.33 -0.00    +0.000 C 
DOCKED: BRANCH  12  13
DOCKED: ATOM     15  N   UNL     1      31.142  17.611 129.906 -0.34 -0.00    +0.000 N 
DOCKED: ATOM     16  H   UNL     1      30.700  17.291 130.767 -0.19 -0.00    +0.000 HD
DOCKED: BRANCH  13  15
DOCKED: ATOM     17  C   UNL     1      30.255  17.156 128.809 -0.46 -0.00    +0.000 C 
DOCKED: ATOM     18  C   UNL     1      29.746  18.323 127.965 -0.41 -0.00    +0.000 C 
DOCKED: ENDBRANCH  13  15
DOCKED: BRANCH  13  17
DOCKED: ATOM     19  C   UNL     1      31.224  19.087 130.047 -0.20 -0.00    +0.000 C 
DOCKED: ATOM     20  C   UNL     1      30.166  19.691 130.982 -0.26 -0.00    +0.000 C 
DOCKED: ENDBRANCH  13  17
DOCKED: ENDBRANCH  12  13
DOCKED: ENDBRANCH   7  12
DOCKED: ENDBRANCH   1   2
DOCKED: BRANCH   1  19
DOCKED: ATOM     21  O   UNL     1      37.140  17.538 122.528 -0.17 -0.00    +0.000 OA
DOCKED: BRANCH  19  21
DOCKED: ATOM     22  O   UNL     1      37.636  15.701 123.833 -0.37 -0.00    +0.000 OA
DOCKED: ATOM     23  C   UNL     1      37.297  16.162 122.707 -0.30 -0.00    +0.000 C 
DOCKED: ATOM     24  N   UNL     1      37.112  15.287 121.587 -0.25 -0.00    +0.000 N 
DOCKED: ATOM     25  H   UNL     1      37.004  15.696 120.697 -0.00 -0.00    +0.000 HD
DOCKED: BRANCH  22  24
DOCKED: ATOM     26  C   UNL     1      37.071  13.853 121.675 -0.35 -0.00    +0.000 A 
DOCKED: ATOM     27  C   UNL     1      36.690  13.248 122.881 -0.51 -0.00    +0.000 A 
DOCKED: ATOM     28  C   UNL     1      36.663  11.856 123.000 -0.61 -0.00    +0.000 A 
DOCKED: ATOM     29  C   UNL     1      37.025  11.038 121.916 -0.47 -0.00    +0.000 A 
DOCKED: ATOM     30  C   UNL     1      37.442  11.646 120.717 -0.43 -0.00    +0.000 A 
DOCKED: ATOM     31  C   UNL     1      37.468  13.039 120.599 -0.43 -0.00    +0.000 A 
DOCKED: ATOM     32  CM  UNL     1      37.060  12.447 121.798 +0.00 -0.00    +0.000 AC
DOCKED: BRANCH  27  30
DOCKED: ATOM     33  C   UNL     1      36.996   9.562 122.058 -0.63 -0.00    +0.000 C 
DOCKED: ATOM     34  N   UNL     1      37.080   8.934 123.343 -0.62 -0.00    +0.000 N 
DOCKED: ATOM     35  O   UNL     1      36.909   8.840 121.028 -2.66 -0.00    +0.000 OA
DOCKED: ATOM     36  H   UNL     1      37.234   9.481 124.147 -0.58 -0.00    +0.000 HD
DOCKED: BRANCH  31  34
DOCKED: ATOM     37  O   UNL     1      36.949   7.590 123.456 -2.18 -0.00    +0.000 OA
DOCKED: ATOM     38  H   UNL     1      37.050   7.333 124.386 -0.56 -0.00    +0.000 HD
DOCKED: ENDBRANCH  31  34
DOCKED: ENDBRANCH  27  30
DOCKED: ENDBRANCH  22  24
DOCKED: ENDBRANCH  19  21
DOCKED: ENDBRANCH   1  19
DOCKED: TORSDOF 10DOCKED: TER
DOCKED: ENDMDL
________________________________________________________________________________


	BEGINNING GENETIC ALGORITHM DOCKING 96 of 100
Run: 96 Seed: 361670220 710254138 [ Run 96 of 100 GA/GALS ]
Beginning LAMARCKIAN GENETIC ALGORITHM (LGA), with a maximum of 2500000 energy evaluations.

Final-Value: -17.910


	FINAL GENETIC ALGORITHM DOCKED STATE
	_______________________________________________


Detailed state:  trans 35.693 18.037 122.725 quatxyzw 0.287778 -0.510752 0.126678 0.800168 center 1.858 0.218 -0.021 ntor 10 168.0432 118.6953 20.0125 -75.6926 -21.1943 -40.9754 -170.4449 -165.0765 76.3580 162.8544
State:	 35.693  18.037 122.725   0.480 -0.852  0.211 73.708    168.04  118.70   20.01  -75.69  -21.19  -40.98 -170.44 -165.08   76.36  162.85

DOCKED: MODEL       96
DOCKED: USER    Run = 96
DOCKED: USER    DPF = ligand_dock.biased.dpf
DOCKED: USER  
DOCKED: USER    Estimated Free Energy of Binding    =  -12.77 kcal/mol  [=(1)+(2)+(3)-(4)]
DOCKED: USER    Estimated Inhibition Constant, Ki   =  437.80 pM (picomolar)  [Temperature = 298.15 K]
DOCKED: USER    
DOCKED: USER    (1) Final Intermolecular Energy     =  -15.75 kcal/mol
DOCKED: USER        vdW + Hbond + desolv Energy     =  -15.75 kcal/mol
DOCKED: USER        Electrostatic Energy            =   +0.00 kcal/mol
DOCKED: USER    (2) Final Total Internal Energy     =   -2.16 kcal/mol
DOCKED: USER    (3) Torsional Free Energy           =   +2.98 kcal/mol
DOCKED: USER    (4) Unbound System's Energy  [=(2)] =   -2.16 kcal/mol
DOCKED: USER    
DOCKED: USER    
DOCKED: USER    NEWDPF move ligand.dum.pdbqt
DOCKED: USER    NEWDPF about 1.858000 0.218000 -0.021000
DOCKED: USER    NEWDPF tran0 35.692740 18.037385 122.724540
DOCKED: USER    NEWDPF quaternion0 0.287778 -0.510752 0.126678 0.800168
DOCKED: USER    NEWDPF axisangle0 0.479810 -0.851571 0.211208 73.707681
DOCKED: USER    NEWDPF quat0 0.479810 -0.851571 0.211208 73.707681
DOCKED: USER    NEWDPF dihe0 168.04 118.70 20.01 -75.69 -21.19 -40.98 -170.44 -165.08 76.36 162.85 
DOCKED: USER  keepresnum = 1 
DOCKED: USER  
DOCKED: REMARK  Name = 
DOCKED: REMARK  12 active torsions:
DOCKED: REMARK  status: ('A' for Active; 'I' for Inactive)
DOCKED: REMARK    1  A    between atoms: C_2  and  O_3
DOCKED: REMARK    2  A    between atoms: O_3  and  C_4
DOCKED: REMARK    3  A    between atoms: C_4  and  C_5
DOCKED: REMARK    4  A    between atoms: C_10  and  C_11
DOCKED: REMARK    5  A    between atoms: C_11  and  N_12
DOCKED: REMARK    6  A    between atoms: N_12  and  C_13
DOCKED: REMARK    7  A    between atoms: N_12  and  C_15
DOCKED: REMARK    8  A    between atoms: C_13  and  C_14
DOCKED: REMARK    9  A    between atoms: C_15  and  C_16
DOCKED: REMARK   10  A    between atoms: N_21  and  C_22
DOCKED: REMARK   11  A    between atoms: C_25  and  C_26
DOCKED: REMARK   12  A    between atoms: N_27  and  O_28
DOCKED: REMARK                            x       y       z     vdW  Elec       q    Type
DOCKED: REMARK                         _______ _______ _______ _____ _____    ______ ____
DOCKED: USER                              x       y       z     vdW  Elec       q    Type
DOCKED: USER                           _______ _______ _______ _____ _____    ______ ____
DOCKED: ROOT
DOCKED: ATOM      1  C   UNL     1      37.018  18.084 123.699 -0.21 -0.00    +0.000 C 
DOCKED: ENDROOT
DOCKED: BRANCH   1   2
DOCKED: ATOM      2  C   UNL     1      35.937  18.522 124.643 -0.21 -0.00    +0.000 A 
DOCKED: ATOM      3  C   UNL     1      35.719  19.888 124.881 -0.17 -0.00    +0.000 A 
DOCKED: ATOM      4  C   UNL     1      34.738  20.301 125.786 -0.16 -0.00    +0.000 A 
DOCKED: ATOM      5  C   UNL     1      33.971  19.352 126.477 -0.21 -0.00    +0.000 A 
DOCKED: ATOM      6  C   UNL     1      32.984  19.758 127.389 -0.17 -0.00    +0.000 A 
DOCKED: ATOM      7  C   UNL     1      32.222  18.803 128.081 -0.19 -0.00    +0.000 A 
DOCKED: ATOM      8  C   UNL     1      32.450  17.437 127.854 -0.31 -0.00    +0.000 A 
DOCKED: ATOM      9  C   UNL     1      33.431  17.025 126.948 -0.37 -0.00    +0.000 A 
DOCKED: ATOM     10  C   UNL     1      34.196  17.973 126.255 -0.30 -0.00    +0.000 A 
DOCKED: ATOM     11  C   UNL     1      35.183  17.568 125.343 -0.27 -0.00    +0.000 A 
DOCKED: ATOM     12  CM  UNL     1      34.957  18.934 125.564 -0.16 -0.00    +0.000 AC
DOCKED: ATOM     13  CM  UNL     1      33.209  18.391 127.168 +0.00 -0.00    +0.000 AC
DOCKED: BRANCH   7  12
DOCKED: ATOM     14  C   UNL     1      31.148  19.230 129.048 -0.22 -0.00    +0.000 C 
DOCKED: BRANCH  12  13
DOCKED: ATOM     15  N   UNL     1      30.008  19.817 128.313 -0.29 -0.00    +0.000 N 
DOCKED: ATOM     16  H   UNL     1      30.379  20.397 127.562 -0.00 -0.00    +0.000 HD
DOCKED: BRANCH  13  15
DOCKED: ATOM     17  C   UNL     1      29.223  20.733 129.174 -0.32 -0.00    +0.000 C 
DOCKED: ATOM     18  C   UNL     1      29.357  20.380 130.655 -0.33 -0.00    +0.000 C 
DOCKED: ENDBRANCH  13  15
DOCKED: BRANCH  13  17
DOCKED: ATOM     19  C   UNL     1      29.194  18.783 127.627 -0.46 -0.00    +0.000 C 
DOCKED: ATOM     20  C   UNL     1      28.074  19.346 126.740 -0.61 -0.00    +0.000 C 
DOCKED: ENDBRANCH  13  17
DOCKED: ENDBRANCH  12  13
DOCKED: ENDBRANCH   7  12
DOCKED: ENDBRANCH   1   2
DOCKED: BRANCH   1  19
DOCKED: ATOM     21  O   UNL     1      36.424  17.606 122.496 -0.20 -0.00    +0.000 OA
DOCKED: BRANCH  19  21
DOCKED: ATOM     22  O   UNL     1      36.030  15.874 121.024 -0.11 -0.00    +0.000 OA
DOCKED: ATOM     23  C   UNL     1      36.320  16.246 122.195 -0.28 -0.00    +0.000 C 
DOCKED: ATOM     24  N   UNL     1      36.503  15.284 123.242 -0.39 -0.00    +0.000 N 
DOCKED: ATOM     25  H   UNL     1      36.570  15.617 124.166 -0.03 -0.00    +0.000 HD
DOCKED: BRANCH  22  24
DOCKED: ATOM     26  C   UNL     1      36.596  13.864 123.033 -0.47 -0.00    +0.000 A 
DOCKED: ATOM     27  C   UNL     1      37.351  13.376 121.958 -0.43 -0.00    +0.000 A 
DOCKED: ATOM     28  C   UNL     1      37.440  12.002 121.719 -0.40 -0.00    +0.000 A 
DOCKED: ATOM     29  C   UNL     1      36.768  11.087 122.548 -0.57 -0.00    +0.000 A 
DOCKED: ATOM     30  C   UNL     1      35.982  11.580 123.605 -0.60 -0.00    +0.000 A 
DOCKED: ATOM     31  C   UNL     1      35.894  12.955 123.843 -0.49 -0.00    +0.000 A 
DOCKED: ATOM     32  CM  UNL     1      36.672  12.477 122.784 +0.00 -0.00    +0.000 AC
DOCKED: BRANCH  27  30
DOCKED: ATOM     33  C   UNL     1      36.868   9.631 122.280 -0.66 -0.00    +0.000 C 
DOCKED: ATOM     34  N   UNL     1      37.079   8.689 123.339 -0.66 -0.00    +0.000 N 
DOCKED: ATOM     35  O   UNL     1      36.782   9.210 121.095 -2.65 -0.00    +0.000 OA
DOCKED: ATOM     36  H   UNL     1      37.233   9.010 124.257 -0.57 -0.00    +0.000 HD
DOCKED: BRANCH  31  34
DOCKED: ATOM     37  O   UNL     1      37.066   7.359 123.084 -2.17 -0.00    +0.000 OA
DOCKED: ATOM     38  H   UNL     1      37.219   7.210 122.138 -0.12 -0.00    +0.000 HD
DOCKED: ENDBRANCH  31  34
DOCKED: ENDBRANCH  27  30
DOCKED: ENDBRANCH  22  24
DOCKED: ENDBRANCH  19  21
DOCKED: ENDBRANCH   1  19
DOCKED: TORSDOF 10DOCKED: TER
DOCKED: ENDMDL
________________________________________________________________________________


	BEGINNING GENETIC ALGORITHM DOCKING 97 of 100
Run: 97 Seed: 2000768950 1340914925 [ Run 97 of 100 GA/GALS ]
Beginning LAMARCKIAN GENETIC ALGORITHM (LGA), with a maximum of 2500000 energy evaluations.

Final-Value: -16.561


	FINAL GENETIC ALGORITHM DOCKED STATE
	_______________________________________________


Detailed state:  trans 37.803 17.030 123.564 quatxyzw -0.012747 -0.755343 -0.654428 -0.031897 center 1.858 0.218 -0.021 ntor 10 66.6221 -149.3137 24.7385 -179.9561 -178.4269 -169.0908 -149.0789 74.1344 153.7102 -176.5506
State:	 37.803  17.030 123.564  -0.013 -0.756 -0.655 -176.344     66.62 -149.31   24.74 -179.96 -178.43 -169.09 -149.08   74.13  153.71 -176.55

DOCKED: MODEL       97
DOCKED: USER    Run = 97
DOCKED: USER    DPF = ligand_dock.biased.dpf
DOCKED: USER  
DOCKED: USER    Estimated Free Energy of Binding    =  -11.23 kcal/mol  [=(1)+(2)+(3)-(4)]
DOCKED: USER    Estimated Inhibition Constant, Ki   =    5.92 nM (nanomolar)  [Temperature = 298.15 K]
DOCKED: USER    
DOCKED: USER    (1) Final Intermolecular Energy     =  -14.21 kcal/mol
DOCKED: USER        vdW + Hbond + desolv Energy     =  -14.21 kcal/mol
DOCKED: USER        Electrostatic Energy            =   +0.00 kcal/mol
DOCKED: USER    (2) Final Total Internal Energy     =   -2.35 kcal/mol
DOCKED: USER    (3) Torsional Free Energy           =   +2.98 kcal/mol
DOCKED: USER    (4) Unbound System's Energy  [=(2)] =   -2.35 kcal/mol
DOCKED: USER    
DOCKED: USER    
DOCKED: USER    NEWDPF move ligand.dum.pdbqt
DOCKED: USER    NEWDPF about 1.858000 0.218000 -0.021000
DOCKED: USER    NEWDPF tran0 37.802696 17.030388 123.564463
DOCKED: USER    NEWDPF quaternion0 -0.012747 -0.755343 -0.654428 -0.031897
DOCKED: USER    NEWDPF axisangle0 -0.012754 -0.755728 -0.654762 -176.344247
DOCKED: USER    NEWDPF quat0 -0.012754 -0.755728 -0.654762 -176.344247
DOCKED: USER    NEWDPF dihe0 66.62 -149.31 24.74 -179.96 -178.43 -169.09 -149.08 74.13 153.71 -176.55 
DOCKED: USER  keepresnum = 1 
DOCKED: USER  
DOCKED: REMARK  Name = 
DOCKED: REMARK  12 active torsions:
DOCKED: REMARK  status: ('A' for Active; 'I' for Inactive)
DOCKED: REMARK    1  A    between atoms: C_2  and  O_3
DOCKED: REMARK    2  A    between atoms: O_3  and  C_4
DOCKED: REMARK    3  A    between atoms: C_4  and  C_5
DOCKED: REMARK    4  A    between atoms: C_10  and  C_11
DOCKED: REMARK    5  A    between atoms: C_11  and  N_12
DOCKED: REMARK    6  A    between atoms: N_12  and  C_13
DOCKED: REMARK    7  A    between atoms: N_12  and  C_15
DOCKED: REMARK    8  A    between atoms: C_13  and  C_14
DOCKED: REMARK    9  A    between atoms: C_15  and  C_16
DOCKED: REMARK   10  A    between atoms: N_21  and  C_22
DOCKED: REMARK   11  A    between atoms: C_25  and  C_26
DOCKED: REMARK   12  A    between atoms: N_27  and  O_28
DOCKED: REMARK                            x       y       z     vdW  Elec       q    Type
DOCKED: REMARK                         _______ _______ _______ _____ _____    ______ ____
DOCKED: USER                              x       y       z     vdW  Elec       q    Type
DOCKED: USER                           _______ _______ _______ _____ _____    ______ ____
DOCKED: ROOT
DOCKED: ATOM      1  C   UNL     1      37.872  18.424 122.692 -0.12 -0.00    +0.000 C 
DOCKED: ENDROOT
DOCKED: BRANCH   1   2
DOCKED: ATOM      2  C   UNL     1      39.282  17.924 122.569 -0.12 -0.00    +0.000 A 
DOCKED: ATOM      3  C   UNL     1      40.174  18.056 123.644 -0.20 -0.00    +0.000 A 
DOCKED: ATOM      4  C   UNL     1      41.497  17.625 123.524 -0.29 -0.00    +0.000 A 
DOCKED: ATOM      5  C   UNL     1      41.950  17.067 122.319 -0.26 -0.00    +0.000 A 
DOCKED: ATOM      6  C   UNL     1      43.279  16.632 122.189 -0.33 -0.00    +0.000 A 
DOCKED: ATOM      7  C   UNL     1      43.728  16.079 120.979 -0.25 -0.00    +0.000 A 
DOCKED: ATOM      8  C   UNL     1      42.840  15.960 119.899 -0.17 -0.00    +0.000 A 
DOCKED: ATOM      9  C   UNL     1      41.516  16.391 120.020 -0.15 -0.00    +0.000 A 
DOCKED: ATOM     10  C   UNL     1      41.061  16.945 121.225 -0.15 -0.00    +0.000 A 
DOCKED: ATOM     11  C   UNL     1      39.734  17.381 121.356 -0.10 -0.00    +0.000 A 
DOCKED: ATOM     12  CM  UNL     1      40.616  17.500 122.439 +0.00 -0.00    +0.000 AC
DOCKED: ATOM     13  CM  UNL     1      42.396  16.513 121.105 +0.00 -0.00    +0.000 AC
DOCKED: BRANCH   7  12
DOCKED: ATOM     14  C   UNL     1      45.147  15.593 120.837 -0.18 +0.00    +0.000 C 
DOCKED: BRANCH  12  13
DOCKED: ATOM     15  N   UNL     1      46.093  16.693 121.123 -0.22 +0.00    +0.000 N 
DOCKED: ATOM     16  H   UNL     1      46.899  16.585 120.509 -0.00 +0.00    +0.000 HD
DOCKED: BRANCH  13  15
DOCKED: ATOM     17  C   UNL     1      46.625  16.602 122.503 -0.35 +0.00    +0.000 C 
DOCKED: ATOM     18  C   UNL     1      46.444  17.911 123.272 -0.34 -0.00    +0.000 C 
DOCKED: ENDBRANCH  13  15
DOCKED: BRANCH  13  17
DOCKED: ATOM     19  C   UNL     1      45.526  18.020 120.777 -0.10 -0.00    +0.000 C 
DOCKED: ATOM     20  C   UNL     1      45.652  18.392 119.292 -0.04 -0.00    +0.000 C 
DOCKED: ENDBRANCH  13  17
DOCKED: ENDBRANCH  12  13
DOCKED: ENDBRANCH   7  12
DOCKED: ENDBRANCH   1   2
DOCKED: BRANCH   1  19
DOCKED: ATOM     21  O   UNL     1      37.063  17.407 123.274 -0.22 -0.00    +0.000 OA
DOCKED: BRANCH  19  21
DOCKED: ATOM     22  O   UNL     1      38.324  15.555 123.823 -0.15 -0.00    +0.000 OA
DOCKED: ATOM     23  C   UNL     1      37.365  16.047 123.166 -0.32 -0.00    +0.000 C 
DOCKED: ATOM     24  N   UNL     1      36.602  15.233 122.268 -0.30 -0.00    +0.000 N 
DOCKED: ATOM     25  H   UNL     1      35.971  15.684 121.660 -0.01 -0.00    +0.000 HD
DOCKED: BRANCH  22  24
DOCKED: ATOM     26  C   UNL     1      36.693  13.799 122.194 -0.35 -0.00    +0.000 A 
DOCKED: ATOM     27  C   UNL     1      36.327  13.029 123.306 -0.56 -0.00    +0.000 A 
DOCKED: ATOM     28  C   UNL     1      36.427  11.636 123.268 -0.63 -0.00    +0.000 A 
DOCKED: ATOM     29  C   UNL     1      36.905  10.984 122.119 -0.51 -0.00    +0.000 A 
DOCKED: ATOM     30  C   UNL     1      37.306  11.760 121.016 -0.44 -0.00    +0.000 A 
DOCKED: ATOM     31  C   UNL     1      37.204  13.154 121.054 -0.41 -0.00    +0.000 A 
DOCKED: ATOM     32  CM  UNL     1      36.811  12.393 122.160 +0.00 -0.00    +0.000 AC
DOCKED: BRANCH  27  30
DOCKED: ATOM     33  C   UNL     1      37.010   9.504 122.095 -0.63 -0.00    +0.000 C 
DOCKED: ATOM     34  N   UNL     1      37.073   8.740 123.305 -0.66 -0.00    +0.000 N 
DOCKED: ATOM     35  O   UNL     1      37.060   8.902 120.988 -2.71 -0.00    +0.000 OA
DOCKED: ATOM     36  H   UNL     1      37.121   9.201 124.174 -0.57 -0.00    +0.000 HD
DOCKED: BRANCH  31  34
DOCKED: ATOM     37  O   UNL     1      37.066   7.386 123.260 -2.16 -0.00    +0.000 OA
DOCKED: ATOM     38  H   UNL     1      37.402   7.090 122.400 -0.21 -0.00    +0.000 HD
DOCKED: ENDBRANCH  31  34
DOCKED: ENDBRANCH  27  30
DOCKED: ENDBRANCH  22  24
DOCKED: ENDBRANCH  19  21
DOCKED: ENDBRANCH   1  19
DOCKED: TORSDOF 10DOCKED: TER
DOCKED: ENDMDL
________________________________________________________________________________


	BEGINNING GENETIC ALGORITHM DOCKING 98 of 100
Run: 98 Seed: 1431151712 584125299 [ Run 98 of 100 GA/GALS ]
Beginning LAMARCKIAN GENETIC ALGORITHM (LGA), with a maximum of 2500000 energy evaluations.

Final-Value: -17.074


	FINAL GENETIC ALGORITHM DOCKED STATE
	_______________________________________________


Detailed state:  trans 37.464 17.720 122.798 quatxyzw 0.204246 0.259586 0.242410 0.912215 center 1.858 0.218 -0.021 ntor 10 -54.1672 179.3037 20.7128 -61.7754 -4.0107 -101.7182 87.4465 180.0000 107.9133 48.4391
State:	 37.464  17.720 122.798   0.499  0.634  0.592 48.373    -54.17  179.30   20.71  -61.78   -4.01 -101.72   87.45  180.00  107.91   48.44

DOCKED: MODEL       98
DOCKED: USER    Run = 98
DOCKED: USER    DPF = ligand_dock.biased.dpf
DOCKED: USER  
DOCKED: USER    Estimated Free Energy of Binding    =  -11.74 kcal/mol  [=(1)+(2)+(3)-(4)]
DOCKED: USER    Estimated Inhibition Constant, Ki   =    2.48 nM (nanomolar)  [Temperature = 298.15 K]
DOCKED: USER    
DOCKED: USER    (1) Final Intermolecular Energy     =  -14.72 kcal/mol
DOCKED: USER        vdW + Hbond + desolv Energy     =  -14.72 kcal/mol
DOCKED: USER        Electrostatic Energy            =   +0.00 kcal/mol
DOCKED: USER    (2) Final Total Internal Energy     =   -2.35 kcal/mol
DOCKED: USER    (3) Torsional Free Energy           =   +2.98 kcal/mol
DOCKED: USER    (4) Unbound System's Energy  [=(2)] =   -2.35 kcal/mol
DOCKED: USER    
DOCKED: USER    
DOCKED: USER    NEWDPF move ligand.dum.pdbqt
DOCKED: USER    NEWDPF about 1.858000 0.218000 -0.021000
DOCKED: USER    NEWDPF tran0 37.463666 17.720018 122.797883
DOCKED: USER    NEWDPF quaternion0 0.204246 0.259586 0.242410 0.912215
DOCKED: USER    NEWDPF axisangle0 0.498512 0.633581 0.591660 48.373487
DOCKED: USER    NEWDPF quat0 0.498512 0.633581 0.591660 48.373487
DOCKED: USER    NEWDPF dihe0 -54.17 179.30 20.71 -61.78 -4.01 -101.72 87.45 180.00 107.91 48.44 
DOCKED: USER  keepresnum = 1 
DOCKED: USER  
DOCKED: REMARK  Name = 
DOCKED: REMARK  12 active torsions:
DOCKED: REMARK  status: ('A' for Active; 'I' for Inactive)
DOCKED: REMARK    1  A    between atoms: C_2  and  O_3
DOCKED: REMARK    2  A    between atoms: O_3  and  C_4
DOCKED: REMARK    3  A    between atoms: C_4  and  C_5
DOCKED: REMARK    4  A    between atoms: C_10  and  C_11
DOCKED: REMARK    5  A    between atoms: C_11  and  N_12
DOCKED: REMARK    6  A    between atoms: N_12  and  C_13
DOCKED: REMARK    7  A    between atoms: N_12  and  C_15
DOCKED: REMARK    8  A    between atoms: C_13  and  C_14
DOCKED: REMARK    9  A    between atoms: C_15  and  C_16
DOCKED: REMARK   10  A    between atoms: N_21  and  C_22
DOCKED: REMARK   11  A    between atoms: C_25  and  C_26
DOCKED: REMARK   12  A    between atoms: N_27  and  O_28
DOCKED: REMARK                            x       y       z     vdW  Elec       q    Type
DOCKED: REMARK                         _______ _______ _______ _____ _____    ______ ____
DOCKED: USER                              x       y       z     vdW  Elec       q    Type
DOCKED: USER                           _______ _______ _______ _____ _____    ______ ____
DOCKED: ROOT
DOCKED: ATOM      1  C   UNL     1      36.424  17.995 124.043 -0.24 -0.00    +0.000 C 
DOCKED: ENDROOT
DOCKED: BRANCH   1   2
DOCKED: ATOM      2  C   UNL     1      35.511  18.121 122.858 -0.25 -0.00    +0.000 A 
DOCKED: ATOM      3  C   UNL     1      34.161  17.756 122.964 -0.33 -0.00    +0.000 A 
DOCKED: ATOM      4  C   UNL     1      33.315  17.837 121.856 -0.09 -0.00    +0.000 A 
DOCKED: ATOM      5  C   UNL     1      33.813  18.272 120.619 -0.31 -0.00    +0.000 A 
DOCKED: ATOM      6  C   UNL     1      32.971  18.355 119.499 -0.30 -0.00    +0.000 A 
DOCKED: ATOM      7  C   UNL     1      33.477  18.787 118.262 -0.18 -0.00    +0.000 A 
DOCKED: ATOM      8  C   UNL     1      34.831  19.139 118.152 -0.12 -0.00    +0.000 A 
DOCKED: ATOM      9  C   UNL     1      35.676  19.057 119.261 -0.14 -0.00    +0.000 A 
DOCKED: ATOM     10  C   UNL     1      35.178  18.626 120.499 -0.22 -0.00    +0.000 A 
DOCKED: ATOM     11  C   UNL     1      36.019  18.542 121.619 -0.19 -0.00    +0.000 A 
DOCKED: ATOM     12  CM  UNL     1      34.667  18.192 121.736 +0.00 -0.00    +0.000 AC
DOCKED: ATOM     13  CM  UNL     1      34.325  18.706 119.382 +0.00 -0.00    +0.000 AC
DOCKED: BRANCH   7  12
DOCKED: ATOM     14  C   UNL     1      32.576  18.898 117.060 -0.12 -0.00    +0.000 C 
DOCKED: BRANCH  12  13
DOCKED: ATOM     15  N   UNL     1      31.164  18.724 117.465 -0.15 -0.00    +0.000 N 
DOCKED: ATOM     16  H   UNL     1      31.145  18.154 118.310 -0.00 -0.00    +0.000 HD
DOCKED: BRANCH  13  15
DOCKED: ATOM     17  C   UNL     1      30.400  17.962 116.450 -0.14 -0.00    +0.000 C 
DOCKED: ATOM     18  C   UNL     1      29.980  16.586 116.967 -0.30 -0.00    +0.000 C 
DOCKED: ENDBRANCH  13  15
DOCKED: BRANCH  13  17
DOCKED: ATOM     19  C   UNL     1      30.535  20.010 117.860 -0.21 -0.00    +0.000 C 
DOCKED: ATOM     20  C   UNL     1      30.151  20.095 119.344 -0.38 -0.00    +0.000 C 
DOCKED: ENDBRANCH  13  17
DOCKED: ENDBRANCH  12  13
DOCKED: ENDBRANCH   7  12
DOCKED: ENDBRANCH   1   2
DOCKED: BRANCH   1  19
DOCKED: ATOM     21  O   UNL     1      37.679  17.477 123.615 -0.23 -0.00    +0.000 OA
DOCKED: BRANCH  19  21
DOCKED: ATOM     22  O   UNL     1      38.983  15.741 122.832 -0.34 -0.00    +0.000 OA
DOCKED: ATOM     23  C   UNL     1      37.853  16.147 123.224 -0.30 -0.00    +0.000 C 
DOCKED: ATOM     24  N   UNL     1      36.723  15.265 123.232 -0.38 -0.00    +0.000 N 
DOCKED: ATOM     25  H   UNL     1      35.834  15.657 123.391 -0.01 -0.00    +0.000 HD
DOCKED: BRANCH  22  24
DOCKED: ATOM     26  C   UNL     1      36.801  13.844 123.023 -0.48 -0.00    +0.000 A 
DOCKED: ATOM     27  C   UNL     1      37.321  13.354 121.817 -0.43 -0.00    +0.000 A 
DOCKED: ATOM     28  C   UNL     1      37.388  11.978 121.580 -0.42 -0.00    +0.000 A 
DOCKED: ATOM     29  C   UNL     1      36.928  11.063 122.543 -0.54 -0.00    +0.000 A 
DOCKED: ATOM     30  C   UNL     1      36.374  11.557 123.738 -0.62 -0.00    +0.000 A 
DOCKED: ATOM     31  C   UNL     1      36.308  12.934 123.974 -0.45 -0.00    +0.000 A 
DOCKED: ATOM     32  CM  UNL     1      36.853  12.455 122.779 +0.00 -0.00    +0.000 AC
DOCKED: BRANCH  27  30
DOCKED: ATOM     33  C   UNL     1      37.001   9.606 122.275 -0.62 -0.00    +0.000 C 
DOCKED: ATOM     34  N   UNL     1      37.095   8.654 123.342 -0.66 -0.00    +0.000 N 
DOCKED: ATOM     35  O   UNL     1      36.996   9.192 121.084 -2.71 -0.00    +0.000 OA
DOCKED: ATOM     36  H   UNL     1      37.186   8.967 124.272 -0.56 -0.00    +0.000 HD
DOCKED: BRANCH  31  34
DOCKED: ATOM     37  O   UNL     1      37.058   7.326 123.079 -2.14 -0.00    +0.000 OA
DOCKED: ATOM     38  H   UNL     1      37.293   7.174 122.150 -0.15 -0.00    +0.000 HD
DOCKED: ENDBRANCH  31  34
DOCKED: ENDBRANCH  27  30
DOCKED: ENDBRANCH  22  24
DOCKED: ENDBRANCH  19  21
DOCKED: ENDBRANCH   1  19
DOCKED: TORSDOF 10DOCKED: TER
DOCKED: ENDMDL
________________________________________________________________________________


	BEGINNING GENETIC ALGORITHM DOCKING 99 of 100
Run: 99 Seed: 1555377640 490256903 [ Run 99 of 100 GA/GALS ]
Beginning LAMARCKIAN GENETIC ALGORITHM (LGA), with a maximum of 2500000 energy evaluations.

Final-Value: -17.128


	FINAL GENETIC ALGORITHM DOCKED STATE
	_______________________________________________


Detailed state:  trans 37.805 17.114 124.068 quatxyzw -0.035668 0.741537 0.669255 0.030783 center 1.858 0.218 -0.021 ntor 10 -38.0937 -179.8958 26.9458 18.2004 -8.6916 -151.8432 68.4757 47.7609 145.2803 -174.8626
State:	 37.805  17.114 124.068  -0.036  0.742  0.670 176.472    -38.09 -179.90   26.95   18.20   -8.69 -151.84   68.48   47.76  145.28 -174.86

DOCKED: MODEL       99
DOCKED: USER    Run = 99
DOCKED: USER    DPF = ligand_dock.biased.dpf
DOCKED: USER  
DOCKED: USER    Estimated Free Energy of Binding    =  -12.19 kcal/mol  [=(1)+(2)+(3)-(4)]
DOCKED: USER    Estimated Inhibition Constant, Ki   =    1.16 nM (nanomolar)  [Temperature = 298.15 K]
DOCKED: USER    
DOCKED: USER    (1) Final Intermolecular Energy     =  -15.17 kcal/mol
DOCKED: USER        vdW + Hbond + desolv Energy     =  -15.17 kcal/mol
DOCKED: USER        Electrostatic Energy            =   +0.00 kcal/mol
DOCKED: USER    (2) Final Total Internal Energy     =   -1.96 kcal/mol
DOCKED: USER    (3) Torsional Free Energy           =   +2.98 kcal/mol
DOCKED: USER    (4) Unbound System's Energy  [=(2)] =   -1.96 kcal/mol
DOCKED: USER    
DOCKED: USER    
DOCKED: USER    NEWDPF move ligand.dum.pdbqt
DOCKED: USER    NEWDPF about 1.858000 0.218000 -0.021000
DOCKED: USER    NEWDPF tran0 37.805497 17.113601 124.068174
DOCKED: USER    NEWDPF quaternion0 -0.035668 0.741537 0.669255 0.030783
DOCKED: USER    NEWDPF axisangle0 -0.035685 0.741889 0.669573 176.471944
DOCKED: USER    NEWDPF quat0 -0.035685 0.741889 0.669573 176.471944
DOCKED: USER    NEWDPF dihe0 -38.09 -179.90 26.95 18.20 -8.69 -151.84 68.48 47.76 145.28 -174.86 
DOCKED: USER  keepresnum = 1 
DOCKED: USER  
DOCKED: REMARK  Name = 
DOCKED: REMARK  12 active torsions:
DOCKED: REMARK  status: ('A' for Active; 'I' for Inactive)
DOCKED: REMARK    1  A    between atoms: C_2  and  O_3
DOCKED: REMARK    2  A    between atoms: O_3  and  C_4
DOCKED: REMARK    3  A    between atoms: C_4  and  C_5
DOCKED: REMARK    4  A    between atoms: C_10  and  C_11
DOCKED: REMARK    5  A    between atoms: C_11  and  N_12
DOCKED: REMARK    6  A    between atoms: N_12  and  C_13
DOCKED: REMARK    7  A    between atoms: N_12  and  C_15
DOCKED: REMARK    8  A    between atoms: C_13  and  C_14
DOCKED: REMARK    9  A    between atoms: C_15  and  C_16
DOCKED: REMARK   10  A    between atoms: N_21  and  C_22
DOCKED: REMARK   11  A    between atoms: C_25  and  C_26
DOCKED: REMARK   12  A    between atoms: N_27  and  O_28
DOCKED: REMARK                            x       y       z     vdW  Elec       q    Type
DOCKED: REMARK                         _______ _______ _______ _____ _____    ______ ____
DOCKED: USER                              x       y       z     vdW  Elec       q    Type
DOCKED: USER                           _______ _______ _______ _____ _____    ______ ____
DOCKED: ROOT
DOCKED: ATOM      1  C   UNL     1      37.829  18.547 123.261 -0.14 -0.00    +0.000 C 
DOCKED: ENDROOT
DOCKED: BRANCH   1   2
DOCKED: ATOM      2  C   UNL     1      39.276  18.151 123.210 -0.14 -0.00    +0.000 A 
DOCKED: ATOM      3  C   UNL     1      40.079  18.262 124.356 -0.23 -0.00    +0.000 A 
DOCKED: ATOM      4  C   UNL     1      41.435  17.929 124.307 -0.27 -0.00    +0.000 A 
DOCKED: ATOM      5  C   UNL     1      42.010  17.493 123.104 -0.29 -0.00    +0.000 A 
DOCKED: ATOM      6  C   UNL     1      43.372  17.158 123.045 -0.30 -0.00    +0.000 A 
DOCKED: ATOM      7  C   UNL     1      43.944  16.727 121.838 -0.28 -0.00    +0.000 A 
DOCKED: ATOM      8  C   UNL     1      43.145  16.629 120.688 -0.19 -0.00    +0.000 A 
DOCKED: ATOM      9  C   UNL     1      41.789  16.962 120.738 -0.14 -0.00    +0.000 A 
DOCKED: ATOM     10  C   UNL     1      41.212  17.394 121.941 -0.16 -0.00    +0.000 A 
DOCKED: ATOM     11  C   UNL     1      39.851  17.731 122.001 -0.11 -0.00    +0.000 A 
DOCKED: ATOM     12  CM  UNL     1      40.643  17.827 123.153 +0.00 -0.00    +0.000 AC
DOCKED: ATOM     13  CM  UNL     1      42.579  17.061 121.892 +0.00 -0.00    +0.000 AC
DOCKED: BRANCH   7  12
DOCKED: ATOM     14  C   UNL     1      45.400  16.347 121.770 -0.19 +0.00    +0.000 C 
DOCKED: BRANCH  12  13
DOCKED: ATOM     15  N   UNL     1      46.210  17.290 122.570 -0.31 -0.00    +0.000 N 
DOCKED: ATOM     16  H   UNL     1      45.814  17.329 123.509 -0.06 -0.00    +0.000 HD
DOCKED: BRANCH  13  15
DOCKED: ATOM     17  C   UNL     1      46.116  18.670 122.039 -0.16 -0.00    +0.000 C 
DOCKED: ATOM     18  C   UNL     1      45.737  19.675 123.126 -0.18 -0.00    +0.000 C 
DOCKED: ENDBRANCH  13  15
DOCKED: BRANCH  13  17
DOCKED: ATOM     19  C   UNL     1      47.600  16.807 122.764 -0.38 +0.00    +0.000 C 
DOCKED: ATOM     20  C   UNL     1      47.947  16.447 124.216 -0.51 +0.00    +0.000 C 
DOCKED: ENDBRANCH  13  17
DOCKED: ENDBRANCH  12  13
DOCKED: ENDBRANCH   7  12
DOCKED: ENDBRANCH   1   2
DOCKED: BRANCH   1  19
DOCKED: ATOM     21  O   UNL     1      37.060  17.451 123.745 -0.25 -0.00    +0.000 OA
DOCKED: BRANCH  19  21
DOCKED: ATOM     22  O   UNL     1      38.562  15.709 123.567 -0.26 -0.00    +0.000 OA
DOCKED: ATOM     23  C   UNL     1      37.374  16.121 123.455 -0.32 -0.00    +0.000 C 
DOCKED: ATOM     24  N   UNL     1      36.340  15.247 122.987 -0.38 -0.00    +0.000 N 
DOCKED: ATOM     25  H   UNL     1      35.467  15.645 122.764 -0.02 -0.00    +0.000 HD
DOCKED: BRANCH  22  24
DOCKED: ATOM     26  C   UNL     1      36.490  13.826 122.823 -0.43 -0.00    +0.000 A 
DOCKED: ATOM     27  C   UNL     1      37.147  13.332 121.688 -0.41 -0.00    +0.000 A 
DOCKED: ATOM     28  C   UNL     1      37.288  11.955 121.493 -0.44 -0.00    +0.000 A 
DOCKED: ATOM     29  C   UNL     1      36.766  11.043 122.426 -0.56 -0.00    +0.000 A 
DOCKED: ATOM     30  C   UNL     1      36.075  11.540 123.546 -0.62 -0.00    +0.000 A 
DOCKED: ATOM     31  C   UNL     1      35.935  12.918 123.741 -0.53 -0.00    +0.000 A 
DOCKED: ATOM     32  CM  UNL     1      36.617  12.435 122.619 +0.00 -0.00    +0.000 AC
DOCKED: BRANCH  27  30
DOCKED: ATOM     33  C   UNL     1      36.919   9.584 122.203 -0.64 -0.00    +0.000 C 
DOCKED: ATOM     34  N   UNL     1      37.036   8.670 123.299 -0.67 -0.00    +0.000 N 
DOCKED: ATOM     35  O   UNL     1      36.961   9.137 121.025 -2.70 -0.00    +0.000 OA
DOCKED: ATOM     36  H   UNL     1      37.091   9.013 124.221 -0.56 -0.00    +0.000 HD
DOCKED: BRANCH  31  34
DOCKED: ATOM     37  O   UNL     1      37.073   7.334 123.074 -2.15 -0.00    +0.000 OA
DOCKED: ATOM     38  H   UNL     1      37.430   7.165 122.188 -0.18 -0.00    +0.000 HD
DOCKED: ENDBRANCH  31  34
DOCKED: ENDBRANCH  27  30
DOCKED: ENDBRANCH  22  24
DOCKED: ENDBRANCH  19  21
DOCKED: ENDBRANCH   1  19
DOCKED: TORSDOF 10DOCKED: TER
DOCKED: ENDMDL
________________________________________________________________________________


	BEGINNING GENETIC ALGORITHM DOCKING 100 of 100
Run: 100 Seed: 1477664648 2055159708 [ Run 100 of 100 GA/GALS ]
Beginning LAMARCKIAN GENETIC ALGORITHM (LGA), with a maximum of 2500000 energy evaluations.

Final-Value: -16.951


	FINAL GENETIC ALGORITHM DOCKED STATE
	_______________________________________________


Detailed state:  trans 37.096 17.470 119.751 quatxyzw -0.380488 -0.138290 -0.190797 -0.894260 center 1.858 0.218 -0.021 ntor 10 179.9347 100.4397 9.8052 -60.0534 -175.7741 55.0914 -56.1671 153.1677 112.2385 -102.4131
State:	 37.096  17.470 119.751  -0.850 -0.309 -0.426 -53.173    179.93  100.44    9.81  -60.05 -175.77   55.09  -56.17  153.17  112.24 -102.41

DOCKED: MODEL      100
DOCKED: USER    Run = 100
DOCKED: USER    DPF = ligand_dock.biased.dpf
DOCKED: USER  
DOCKED: USER    Estimated Free Energy of Binding    =  -12.03 kcal/mol  [=(1)+(2)+(3)-(4)]
DOCKED: USER    Estimated Inhibition Constant, Ki   =    1.52 nM (nanomolar)  [Temperature = 298.15 K]
DOCKED: USER    
DOCKED: USER    (1) Final Intermolecular Energy     =  -15.01 kcal/mol
DOCKED: USER        vdW + Hbond + desolv Energy     =  -15.01 kcal/mol
DOCKED: USER        Electrostatic Energy            =   +0.00 kcal/mol
DOCKED: USER    (2) Final Total Internal Energy     =   -1.94 kcal/mol
DOCKED: USER    (3) Torsional Free Energy           =   +2.98 kcal/mol
DOCKED: USER    (4) Unbound System's Energy  [=(2)] =   -1.94 kcal/mol
DOCKED: USER    
DOCKED: USER    
DOCKED: USER    NEWDPF move ligand.dum.pdbqt
DOCKED: USER    NEWDPF about 1.858000 0.218000 -0.021000
DOCKED: USER    NEWDPF tran0 37.096409 17.470338 119.751342
DOCKED: USER    NEWDPF quaternion0 -0.380488 -0.138290 -0.190797 -0.894260
DOCKED: USER    NEWDPF axisangle0 -0.850163 -0.308995 -0.426316 -53.172907
DOCKED: USER    NEWDPF quat0 -0.850163 -0.308995 -0.426316 -53.172907
DOCKED: USER    NEWDPF dihe0 179.93 100.44 9.81 -60.05 -175.77 55.09 -56.17 153.17 112.24 -102.41 
DOCKED: USER  keepresnum = 1 
DOCKED: USER  
DOCKED: REMARK  Name = 
DOCKED: REMARK  12 active torsions:
DOCKED: REMARK  status: ('A' for Active; 'I' for Inactive)
DOCKED: REMARK    1  A    between atoms: C_2  and  O_3
DOCKED: REMARK    2  A    between atoms: O_3  and  C_4
DOCKED: REMARK    3  A    between atoms: C_4  and  C_5
DOCKED: REMARK    4  A    between atoms: C_10  and  C_11
DOCKED: REMARK    5  A    between atoms: C_11  and  N_12
DOCKED: REMARK    6  A    between atoms: N_12  and  C_13
DOCKED: REMARK    7  A    between atoms: N_12  and  C_15
DOCKED: REMARK    8  A    between atoms: C_13  and  C_14
DOCKED: REMARK    9  A    between atoms: C_15  and  C_16
DOCKED: REMARK   10  A    between atoms: N_21  and  C_22
DOCKED: REMARK   11  A    between atoms: C_25  and  C_26
DOCKED: REMARK   12  A    between atoms: N_27  and  O_28
DOCKED: REMARK                            x       y       z     vdW  Elec       q    Type
DOCKED: REMARK                         _______ _______ _______ _____ _____    ______ ____
DOCKED: USER                              x       y       z     vdW  Elec       q    Type
DOCKED: USER                           _______ _______ _______ _____ _____    ______ ____
DOCKED: ROOT
DOCKED: ATOM      1  C   UNL     1      36.510  18.188 121.111 -0.17 -0.00    +0.000 C 
DOCKED: ENDROOT
DOCKED: BRANCH   1   2
DOCKED: ATOM      2  C   UNL     1      35.268  18.068 120.277 -0.22 -0.00    +0.000 A 
DOCKED: ATOM      3  C   UNL     1      35.337  17.535 118.980 -0.14 -0.00    +0.000 A 
DOCKED: ATOM      4  C   UNL     1      34.191  17.454 118.186 -0.10 -0.00    +0.000 A 
DOCKED: ATOM      5  C   UNL     1      32.961  17.918 118.672 -0.16 -0.00    +0.000 A 
DOCKED: ATOM      6  C   UNL     1      31.805  17.842 117.880 -0.20 -0.00    +0.000 A 
DOCKED: ATOM      7  C   UNL     1      30.576  18.313 118.371 -0.30 -0.00    +0.000 A 
DOCKED: ATOM      8  C   UNL     1      30.510  18.859 119.662 -0.33 -0.00    +0.000 A 
DOCKED: ATOM      9  C   UNL     1      31.656  18.940 120.457 -0.34 -0.00    +0.000 A 
DOCKED: ATOM     10  C   UNL     1      32.886  18.472 119.972 -0.36 -0.00    +0.000 A 
DOCKED: ATOM     11  C   UNL     1      34.042  18.549 120.763 -0.27 -0.00    +0.000 A 
DOCKED: ATOM     12  CM  UNL     1      34.114  17.999 119.475 +0.00 -0.00    +0.000 AC
DOCKED: ATOM     13  CM  UNL     1      31.732  18.391 119.169 +0.00 -0.00    +0.000 AC
DOCKED: BRANCH   7  12
DOCKED: ATOM     14  C   UNL     1      29.327  18.218 117.535 -0.25 -0.00    +0.000 C 
DOCKED: BRANCH  12  13
DOCKED: ATOM     15  N   UNL     1      28.134  18.468 118.372 -0.30 -0.00    +0.000 N 
DOCKED: ATOM     16  H   UNL     1      28.370  18.237 119.336 -0.58 -0.00    +0.000 HD
DOCKED: BRANCH  13  15
DOCKED: ATOM     17  C   UNL     1      27.017  17.566 118.006 -0.34 -0.00    +0.000 C 
DOCKED: ATOM     18  C   UNL     1      27.262  16.868 116.669 -0.26 -0.00    +0.000 C 
DOCKED: ENDBRANCH  13  15
DOCKED: BRANCH  13  17
DOCKED: ATOM     19  C   UNL     1      27.768  19.906 118.405 -0.25 -0.00    +0.000 C 
DOCKED: ATOM     20  C   UNL     1      26.378  20.191 118.993 -0.31 -0.00    +0.000 C 
DOCKED: ENDBRANCH  13  17
DOCKED: ENDBRANCH  12  13
DOCKED: ENDBRANCH   7  12
DOCKED: ENDBRANCH   1   2
DOCKED: BRANCH   1  19
DOCKED: ATOM     21  O   UNL     1      37.560  17.446 120.499 -0.10 -0.00    +0.000 OA
DOCKED: BRANCH  19  21
DOCKED: ATOM     22  O   UNL     1      38.150  15.467 119.468 -0.19 -0.00    +0.000 OA
DOCKED: ATOM     23  C   UNL     1      37.547  16.051 120.411 -0.19 -0.00    +0.000 C 
DOCKED: ATOM     24  N   UNL     1      36.805  15.299 121.380 -0.23 -0.00    +0.000 N 
DOCKED: ATOM     25  H   UNL     1      36.224  15.795 122.001 -0.01 -0.00    +0.000 HD
DOCKED: BRANCH  22  24
DOCKED: ATOM     26  C   UNL     1      36.854  13.868 121.507 -0.21 -0.00    +0.000 A 
DOCKED: ATOM     27  C   UNL     1      36.523  13.275 122.733 -0.47 -0.00    +0.000 A 
DOCKED: ATOM     28  C   UNL     1      36.583  11.887 122.889 -0.60 -0.00    +0.000 A 
DOCKED: ATOM     29  C   UNL     1      36.983  11.063 121.823 -0.48 -0.00    +0.000 A 
DOCKED: ATOM     30  C   UNL     1      37.349  11.662 120.604 -0.39 -0.00    +0.000 A 
DOCKED: ATOM     31  C   UNL     1      37.288  13.051 120.448 -0.42 -0.00    +0.000 A 
DOCKED: ATOM     32  CM  UNL     1      36.930  12.467 121.668 +0.00 -0.00    +0.000 AC
DOCKED: BRANCH  27  30
DOCKED: ATOM     33  C   UNL     1      37.046   9.593 122.006 -0.61 -0.00    +0.000 C 
DOCKED: ATOM     34  N   UNL     1      37.092   9.003 123.310 -0.61 -0.00    +0.000 N 
DOCKED: ATOM     35  O   UNL     1      37.074   8.842 120.993 -2.70 -0.00    +0.000 OA
DOCKED: ATOM     36  H   UNL     1      37.157   9.578 124.107 -0.56 -0.00    +0.000 HD
DOCKED: BRANCH  31  34
DOCKED: ATOM     37  O   UNL     1      37.047   7.656 123.454 -2.25 -0.00    +0.000 OA
DOCKED: ATOM     38  H   UNL     1      37.140   7.235 122.585 -0.11 -0.00    +0.000 HD
DOCKED: ENDBRANCH  31  34
DOCKED: ENDBRANCH  27  30
DOCKED: ENDBRANCH  22  24
DOCKED: ENDBRANCH  19  21
DOCKED: ENDBRANCH   1  19
DOCKED: TORSDOF 10DOCKED: TER
DOCKED: ENDMDL
________________________________________________________________________________

DPF> analysis                             # perform a ranked cluster analysis


		CLUSTER ANALYSIS OF CONFORMATIONS
		_________________________________

Number of conformations = 100

RMSD cluster analysis will be performed using the ligand atoms only (38 / 38 total atoms).

Outputting structurally similar clusters, ranked in order of increasing energy.


________________________________________________________________________________

Number of distinct conformational clusters found = 14,  out of 100 runs,
Using an rmsd-tolerance of 2.0 A


	CLUSTERING HISTOGRAM
	____________________

________________________________________________________________________________
     |           |     |           |     |                                    
Clus | Lowest    | Run | Mean      | Num | Histogram                          
-ter | Binding   |     | Binding   | in  |                                    
Rank | Energy    |     | Energy    | Clus|    5    10   15   20   25   30   35
_____|___________|_____|___________|_____|____:____|____:____|____:____|____:___
   1 |    -13.97 |   9 |    -12.85 |  44 |############################################
   2 |    -12.86 |  91 |    -12.08 |  17 |#################
   3 |    -12.65 |   1 |    -11.79 |  12 |############
   4 |    -12.55 |  32 |    -11.79 |   7 |#######
   5 |    -12.43 |  30 |    -11.51 |   2 |##
   6 |    -12.19 |  99 |    -11.51 |   7 |#######
   7 |    -12.05 |  79 |    -11.95 |   2 |##
   8 |    -11.73 |   7 |    -11.73 |   1 |#
   9 |    -11.31 |  21 |    -11.31 |   1 |#
  10 |    -11.12 |  12 |    -10.92 |   2 |##
  11 |    -11.08 |   5 |    -11.08 |   1 |#
  12 |    -10.90 |  46 |    -10.80 |   2 |##
  13 |    -10.73 |  67 |    -10.73 |   1 |#
  14 |    -10.69 |  26 |    -10.69 |   1 |#
_____|___________|_____|___________|_____|______________________________________


Number of multi-member conformational clusters found = 9, out of 100 runs.

	RMSD TABLE
	__________

_____________________________________________________________________
     |      |      |           |         |                 |
Rank | Sub- | Run  | Binding   | Cluster | Reference       | Grep
     | Rank |      | Energy    | RMSD    | RMSD            | Pattern
_____|______|______|___________|_________|_________________|___________
   1      1      9      -13.97      0.00    128.68           RANKING
   1      2     95      -13.90      0.80    128.38           RANKING
   1      3     80      -13.82      1.10    128.13           RANKING
   1      4     73      -13.79      1.31    128.98           RANKING
   1      5     17      -13.77      1.45    129.19           RANKING
   1      6     44      -13.68      1.97    128.87           RANKING
   1      7      3      -13.51      0.82    128.66           RANKING
   1      8     72      -13.47      1.40    127.70           RANKING
   1      9     52      -13.40      1.10    128.30           RANKING
   1     10     94      -13.38      1.26    128.84           RANKING
   1     11     69      -13.36      1.47    129.20           RANKING
   1     12     51      -13.34      1.30    128.28           RANKING
   1     13     16      -13.33      1.25    128.47           RANKING
   1     14     55      -13.10      1.11    128.77           RANKING
   1     15     10      -13.08      1.11    128.06           RANKING
   1     16     62      -13.07      0.99    128.47           RANKING
   1     17     61      -13.05      1.02    128.15           RANKING
   1     18     68      -12.94      1.46    128.86           RANKING
   1     19     54      -12.91      1.04    128.17           RANKING
   1     20     13      -12.88      1.28    128.09           RANKING
   1     21     82      -12.87      1.22    128.09           RANKING
   1     22     89      -12.85      1.57    128.85           RANKING
   1     23     96      -12.77      1.48    128.38           RANKING
   1     24     70      -12.74      0.90    128.49           RANKING
   1     25     34      -12.73      1.10    128.10           RANKING
   1     26     47      -12.66      1.07    128.07           RANKING
   1     27     15      -12.63      1.57    128.55           RANKING
   1     28     87      -12.62      1.73    129.44           RANKING
   1     29     63      -12.61      0.92    128.80           RANKING
   1     30     65      -12.60      1.06    128.16           RANKING
   1     31     88      -12.57      1.15    128.25           RANKING
   1     32     22      -12.56      1.13    128.81           RANKING
   1     33     85      -12.55      1.48    128.00           RANKING
   1     34     37      -12.45      1.45    128.24           RANKING
   1     35     48      -12.42      1.22    128.46           RANKING
   1     36     28      -12.38      1.78    127.60           RANKING
   1     37     78      -12.27      2.00    129.41           RANKING
   1     38     41      -12.24      1.69    127.94           RANKING
   1     39      8      -12.20      1.23    128.73           RANKING
   1     40     50      -12.13      1.93    129.17           RANKING
   1     41      6      -12.05      1.77    127.56           RANKING
   1     42     56      -11.87      1.57    127.92           RANKING
   1     43     60      -11.54      1.99    129.74           RANKING
   1     44     77      -11.39      1.42    128.68           RANKING
   2      1     91      -12.86      0.00    124.16           RANKING
   2      2     33      -12.45      1.05    124.31           RANKING
   2      3     57      -12.40      1.52    124.45           RANKING
   2      4     29      -12.38      0.88    124.57           RANKING
   2      5     31      -12.36      1.26    123.99           RANKING
   2      6     23      -12.33      1.01    124.25           RANKING
   2      7     25      -12.28      0.98    124.02           RANKING
   2      8     76      -12.24      1.40    123.68           RANKING
   2      9     39      -12.14      1.69    124.28           RANKING
   2     10    100      -12.03      1.12    123.72           RANKING
   2     11     49      -12.02      1.07    124.18           RANKING
   2     12     58      -11.92      1.85    124.15           RANKING
   2     13     98      -11.74      1.42    124.83           RANKING
   2     14     92      -11.68      1.72    124.58           RANKING
   2     15     53      -11.64      1.25    123.71           RANKING
   2     16     35      -11.63      1.25    124.47           RANKING
   2     17     43      -11.24      1.58    123.78           RANKING
   3      1      1      -12.65      0.00    124.42           RANKING
   3      2     90      -12.31      0.95    124.78           RANKING
   3      3     81      -12.27      1.14    124.11           RANKING
   3      4     27      -12.16      1.44    123.87           RANKING
   3      5     75      -12.07      0.98    124.50           RANKING
   3      6     93      -11.83      0.76    124.43           RANKING
   3      7     14      -11.65      1.45    123.83           RANKING
   3      8     24      -11.65      1.17    124.46           RANKING
   3      9     74      -11.58      1.50    124.15           RANKING
   3     10     38      -11.35      1.18    124.41           RANKING
   3     11     84      -11.02      1.70    124.28           RANKING
   3     12     19      -10.94      1.57    123.87           RANKING
   4      1     32      -12.55      0.00    126.86           RANKING
   4      2     64      -12.13      1.37    126.93           RANKING
   4      3     83      -11.99      1.81    126.55           RANKING
   4      4     11      -11.83      0.81    126.98           RANKING
   4      5     45      -11.62      1.14    126.99           RANKING
   4      6     59      -11.41      1.64    127.12           RANKING
   4      7     20      -10.97      1.71    126.51           RANKING
   5      1     30      -12.43      0.00    127.51           RANKING
   5      2      2      -10.59      1.69    127.59           RANKING
   6      1     99      -12.19      0.00    127.39           RANKING
   6      2     86      -11.53      1.29    127.45           RANKING
   6      3     40      -11.50      0.82    126.90           RANKING
   6      4     71      -11.47      1.48    127.40           RANKING
   6      5      4      -11.43      0.83    127.20           RANKING
   6      6     97      -11.23      1.05    126.67           RANKING
   6      7     42      -11.19      1.56    126.84           RANKING
   7      1     79      -12.05      0.00    123.44           RANKING
   7      2     36      -11.85      1.24    123.54           RANKING
   8      1      7      -11.73      0.00    130.01           RANKING
   9      1     21      -11.31      0.00    122.82           RANKING
  10      1     12      -11.12      0.00    125.62           RANKING
  10      2     66      -10.73      1.24    125.45           RANKING
  11      1      5      -11.08      0.00    126.08           RANKING
  12      1     46      -10.90      0.00    127.51           RANKING
  12      2     18      -10.70      1.83    128.59           RANKING
  13      1     67      -10.73      0.00    124.80           RANKING
  14      1     26      -10.69      0.00    123.71           RANKING
_______________________________________________________________________



	INFORMATION ENTROPY ANALYSIS FOR THIS CLUSTERING
	________________________________________________


Information entropy for this clustering = 0.40  (rmstol = 2.00 Angstrom)

_______________________________________________________________________


	STATISTICAL MECHANICAL ANALYSIS
	_______________________________


Partition function, Q =   102.08            at Temperature, T = 298.15 K
Free energy,        A ~ -2740.69 kcal/mol   at Temperature, T = 298.15 K
Internal energy,    U =   -12.21 kcal/mol   at Temperature, T = 298.15 K
Entropy,            S =     9.15 kcal/mol/K at Temperature, T = 298.15 K

_______________________________________________________________________


	LOWEST ENERGY DOCKED CONFORMATION from EACH CLUSTER
	___________________________________________________



Keeping original residue number (specified in the input PDBQ file) for outputting.

MODEL        9
USER    Run = 9
USER    Cluster Rank = 1
USER    Number of conformations in this cluster = 44
USER  
USER    RMSD from reference structure       = 128.678 A
USER  
USER    Estimated Free Energy of Binding    =  -13.97 kcal/mol  [=(1)+(2)+(3)-(4)]
USER    Estimated Inhibition Constant, Ki   =   57.20 pM (picomolar)  [Temperature = 298.15 K]
USER    
USER    (1) Final Intermolecular Energy     =  -16.96 kcal/mol
USER        vdW + Hbond + desolv Energy     =  -16.96 kcal/mol
USER        Electrostatic Energy            =   +0.00 kcal/mol
USER    (2) Final Total Internal Energy     =   -2.10 kcal/mol
USER    (3) Torsional Free Energy           =   +2.98 kcal/mol
USER    (4) Unbound System's Energy  [=(2)] =   -2.10 kcal/mol
USER    
USER    
USER  
USER    DPF = ligand_dock.biased.dpf
USER    NEWDPF move	ligand.dum.pdbqt
USER    NEWDPF about	1.858000 0.218000 -0.021000
USER    NEWDPF tran0	36.874733 16.762399 123.884241
USER    NEWDPF axisangle0	-0.938087 -0.027344 0.345319 -157.610817
USER    NEWDPF quaternion0	-0.920238 -0.026824 0.338749 -0.194142
USER    NEWDPF dihe0	67.85 158.05 37.29 131.37 -173.48 154.74 -111.65 169.54 -96.77 -177.32 
USER  
USER                              x       y       z    vdW   Elec        q     RMS 
ATOM      1  C   UNL     1      35.857  17.850 123.185 -0.27 -0.00    +0.000    128.678
ATOM      2  C   UNL     1      35.118  17.518 124.448 -0.33 -0.00    +0.000    128.678
ATOM      3  C   UNL     1      34.409  16.312 124.555 -0.48 -0.00    +0.000    128.678
ATOM      4  C   UNL     1      33.690  16.013 125.715 -0.26 -0.00    +0.000    128.678
ATOM      5  C   UNL     1      33.658  16.925 126.780 -0.37 -0.00    +0.000    128.678
ATOM      6  C   UNL     1      32.937  16.634 127.948 -0.39 -0.00    +0.000    128.678
ATOM      7  C   UNL     1      32.904  17.553 129.009 -0.24 -0.00    +0.000    128.678
ATOM      8  C   UNL     1      33.601  18.766 128.896 -0.11 -0.00    +0.000    128.678
ATOM      9  C   UNL     1      34.321  19.064 127.737 -0.13 -0.00    +0.000    128.678
ATOM     10  C   UNL     1      34.356  18.151 126.673 -0.25 -0.00    +0.000    128.678
ATOM     11  C   UNL     1      35.077  18.442 125.505 -0.25 -0.00    +0.000    128.678
ATOM     12  CM  UNL     1      34.385  17.227 125.612 -0.26 -0.00    +0.000    128.678
ATOM     13  CM  UNL     1      33.629  17.849 127.840 +0.00 -0.00    +0.000    128.678
ATOM     14  C   UNL     1      32.148  17.240 130.274 -0.31 -0.00    +0.000    128.678
ATOM     15  N   UNL     1      30.781  17.798 130.200 -0.34 -0.00    +0.000    128.678
ATOM     16  H   UNL     1      30.230  17.386 130.953 -0.39 -0.00    +0.000    128.678
ATOM     17  C   UNL     1      30.102  17.403 128.944 -0.44 -0.00    +0.000    128.678
ATOM     18  C   UNL     1      29.574  18.614 128.175 -0.44 -0.00    +0.000    128.678
ATOM     19  C   UNL     1      30.759  19.258 130.469 -0.22 -0.00    +0.000    128.678
ATOM     20  C   UNL     1      29.640  19.708 131.420 -0.31 -0.00    +0.000    128.678
ATOM     21  O   UNL     1      37.167  17.296 123.249 -0.23 -0.00    +0.000    128.678
ATOM     22  O   UNL     1      38.634  15.577 122.782 -0.35 -0.00    +0.000    128.678
ATOM     23  C   UNL     1      37.441  15.966 122.921 -0.32 -0.00    +0.000    128.678
ATOM     24  N   UNL     1      36.349  15.063 122.703 -0.36 -0.00    +0.000    128.678
ATOM     25  H   UNL     1      35.440  15.440 122.666 -0.02 -0.00    +0.000    128.678
ATOM     26  C   UNL     1      36.492  13.642 122.535 -0.36 -0.00    +0.000    128.678
ATOM     27  C   UNL     1      36.222  12.792 123.616 -0.57 -0.00    +0.000    128.678
ATOM     28  C   UNL     1      36.373  11.408 123.487 -0.63 -0.00    +0.000    128.678
ATOM     29  C   UNL     1      36.807  10.847 122.273 -0.55 -0.00    +0.000    128.678
ATOM     30  C   UNL     1      37.111  11.704 121.200 -0.47 -0.00    +0.000    128.678
ATOM     31  C   UNL     1      36.959  13.088 121.331 -0.38 -0.00    +0.000    128.678
ATOM     32  CM  UNL     1      36.661  12.246 122.408 +0.00 -0.00    +0.000    128.678
ATOM     33  C   UNL     1      36.967   9.377 122.152 -0.65 -0.00    +0.000    128.678
ATOM     34  N   UNL     1      37.026   8.534 123.309 -0.69 -0.00    +0.000    128.678
ATOM     35  O   UNL     1      37.069   8.856 121.008 -2.70 -0.00    +0.000    128.678
ATOM     36  H   UNL     1      37.034   8.935 124.208 -0.54 -0.00    +0.000    128.678
ATOM     37  O   UNL     1      37.070   7.187 123.171 -1.99 -0.00    +0.000    128.678
ATOM     38  H   UNL     1      37.614   6.958 122.401 -0.34 -0.00    +0.000    128.678
TER
ENDMDL
MODEL       91
USER    Run = 91
USER    Cluster Rank = 2
USER    Number of conformations in this cluster = 17
USER  
USER    RMSD from reference structure       = 124.164 A
USER  
USER    Estimated Free Energy of Binding    =  -12.86 kcal/mol  [=(1)+(2)+(3)-(4)]
USER    Estimated Inhibition Constant, Ki   =  376.16 pM (picomolar)  [Temperature = 298.15 K]
USER    
USER    (1) Final Intermolecular Energy     =  -15.84 kcal/mol
USER        vdW + Hbond + desolv Energy     =  -15.84 kcal/mol
USER        Electrostatic Energy            =   +0.00 kcal/mol
USER    (2) Final Total Internal Energy     =   -1.90 kcal/mol
USER    (3) Torsional Free Energy           =   +2.98 kcal/mol
USER    (4) Unbound System's Energy  [=(2)] =   -1.90 kcal/mol
USER    
USER    
USER  
USER    DPF = ligand_dock.biased.dpf
USER    NEWDPF move	ligand.dum.pdbqt
USER    NEWDPF about	1.858000 0.218000 -0.021000
USER    NEWDPF tran0	36.017961 17.167538 122.176286
USER    NEWDPF axisangle0	-0.873499 -0.043710 -0.484860 -161.773433
USER    NEWDPF quaternion0	-0.862473 -0.043158 -0.478740 -0.158387
USER    NEWDPF dihe0	-141.17 -131.16 44.23 -17.80 -178.97 51.56 -170.87 129.81 -84.72 122.72 
USER  
USER                              x       y       z    vdW   Elec        q     RMS 
ATOM      1  C   UNL     1      37.003  18.274 121.460 -0.14 -0.00    +0.000    124.164
ATOM      2  C   UNL     1      35.800  18.319 120.563 -0.19 -0.00    +0.000    124.164
ATOM      3  C   UNL     1      35.959  18.361 119.170 -0.12 -0.00    +0.000    124.164
ATOM      4  C   UNL     1      34.845  18.440 118.331 -0.13 -0.00    +0.000    124.164
ATOM      5  C   UNL     1      33.554  18.491 118.877 -0.23 -0.00    +0.000    124.164
ATOM      6  C   UNL     1      32.428  18.572 118.042 -0.19 -0.00    +0.000    124.164
ATOM      7  C   UNL     1      31.138  18.628 118.594 -0.31 -0.00    +0.000    124.164
ATOM      8  C   UNL     1      30.980  18.601 119.989 -0.40 -0.00    +0.000    124.164
ATOM      9  C   UNL     1      32.095  18.522 120.827 -0.22 -0.00    +0.000    124.164
ATOM     10  C   UNL     1      33.385  18.466 120.282 -0.32 -0.00    +0.000    124.164
ATOM     11  C   UNL     1      34.511  18.387 121.116 -0.27 -0.00    +0.000    124.164
ATOM     12  CM  UNL     1      34.676  18.411 119.724 +0.00 -0.00    +0.000    124.164
ATOM     13  CM  UNL     1      32.263  18.547 119.435 +0.00 -0.00    +0.000    124.164
ATOM     14  C   UNL     1      29.924  18.695 117.705 -0.24 -0.00    +0.000    124.164
ATOM     15  N   UNL     1      28.712  18.337 118.472 -0.31 -0.00    +0.000    124.164
ATOM     16  H   UNL     1      28.932  18.411 119.465 -0.52 -0.00    +0.000    124.164
ATOM     17  C   UNL     1      28.331  16.921 118.252 -0.45 -0.00    +0.000    124.164
ATOM     18  C   UNL     1      29.528  16.066 117.841 -0.39 -0.00    +0.000    124.164
ATOM     19  C   UNL     1      27.607  19.304 118.254 -0.27 -0.00    +0.000    124.164
ATOM     20  C   UNL     1      27.902  20.724 118.759 -0.26 -0.00    +0.000    124.164
ATOM     21  O   UNL     1      36.692  17.513 122.623 -0.19 -0.00    +0.000    124.164
ATOM     22  O   UNL     1      37.618  15.722 123.745 -0.37 -0.00    +0.000    124.164
ATOM     23  C   UNL     1      36.992  16.153 122.737 -0.30 -0.00    +0.000    124.164
ATOM     24  N   UNL     1      36.618  15.266 121.676 -0.23 -0.00    +0.000    124.164
ATOM     25  H   UNL     1      36.275  15.663 120.843 -0.01 -0.00    +0.000    124.164
ATOM     26  C   UNL     1      36.708  13.832 121.746 -0.21 -0.00    +0.000    124.164
ATOM     27  C   UNL     1      36.325  13.177 122.924 -0.49 -0.00    +0.000    124.164
ATOM     28  C   UNL     1      36.423  11.786 123.027 -0.61 -0.00    +0.000    124.164
ATOM     29  C   UNL     1      36.916  11.023 121.955 -0.50 -0.00    +0.000    124.164
ATOM     30  C   UNL     1      37.333  11.685 120.786 -0.42 -0.00    +0.000    124.164
ATOM     31  C   UNL     1      37.234  13.076 120.684 -0.42 -0.00    +0.000    124.164
ATOM     32  CM  UNL     1      36.823  12.430 121.854 +0.00 -0.00    +0.000    124.164
ATOM     33  C   UNL     1      37.018   9.548 122.080 -0.62 -0.00    +0.000    124.164
ATOM     34  N   UNL     1      37.074   8.909 123.361 -0.62 -0.00    +0.000    124.164
ATOM     35  O   UNL     1      37.072   8.839 121.039 -2.69 -0.00    +0.000    124.164
ATOM     36  H   UNL     1      37.119   9.455 124.180 -0.58 -0.00    +0.000    124.164
ATOM     37  O   UNL     1      37.065   7.557 123.452 -2.21 -0.00    +0.000    124.164
ATOM     38  H   UNL     1      37.668   7.185 122.789 -0.36 -0.00    +0.000    124.164
TER
ENDMDL
MODEL        1
USER    Run = 1
USER    Cluster Rank = 3
USER    Number of conformations in this cluster = 12
USER  
USER    RMSD from reference structure       = 124.421 A
USER  
USER    Estimated Free Energy of Binding    =  -12.65 kcal/mol  [=(1)+(2)+(3)-(4)]
USER    Estimated Inhibition Constant, Ki   =  530.23 pM (picomolar)  [Temperature = 298.15 K]
USER    
USER    (1) Final Intermolecular Energy     =  -15.64 kcal/mol
USER        vdW + Hbond + desolv Energy     =  -15.64 kcal/mol
USER        Electrostatic Energy            =   +0.00 kcal/mol
USER    (2) Final Total Internal Energy     =   -2.21 kcal/mol
USER    (3) Torsional Free Energy           =   +2.98 kcal/mol
USER    (4) Unbound System's Energy  [=(2)] =   -2.21 kcal/mol
USER    
USER    
USER  
USER    DPF = ligand_dock.biased.dpf
USER    NEWDPF move	ligand.dum.pdbqt
USER    NEWDPF about	1.858000 0.218000 -0.021000
USER    NEWDPF tran0	35.787062 17.028472 123.008397
USER    NEWDPF axisangle0	-0.176255 -0.857978 -0.482503 -111.558344
USER    NEWDPF quaternion0	-0.145741 -0.709441 -0.398970 -0.562384
USER    NEWDPF dihe0	-90.60 -180.00 19.68 -39.87 -13.87 87.70 -82.94 -73.31 109.22 94.59 
USER  
USER                              x       y       z    vdW   Elec        q     RMS 
ATOM      1  C   UNL     1      34.384  17.741 122.527 -0.39 -0.00    +0.000    124.421
ATOM      2  C   UNL     1      35.126  17.631 121.226 -0.26 -0.00    +0.000    124.421
ATOM      3  C   UNL     1      34.697  18.358 120.105 -0.25 -0.00    +0.000    124.421
ATOM      4  C   UNL     1      35.362  18.232 118.883 -0.14 -0.00    +0.000    124.421
ATOM      5  C   UNL     1      36.458  17.366 118.762 -0.10 -0.00    +0.000    124.421
ATOM      6  C   UNL     1      37.130  17.232 117.537 -0.07 -0.00    +0.000    124.421
ATOM      7  C   UNL     1      38.224  16.359 117.420 -0.10 -0.00    +0.000    124.421
ATOM      8  C   UNL     1      38.644  15.621 118.538 -0.15 -0.00    +0.000    124.421
ATOM      9  C   UNL     1      37.979  15.747 119.760 -0.17 -0.00    +0.000    124.421
ATOM     10  C   UNL     1      36.886  16.617 119.883 -0.14 -0.00    +0.000    124.421
ATOM     11  C   UNL     1      36.212  16.750 121.107 -0.18 -0.00    +0.000    124.421
ATOM     12  CM  UNL     1      35.790  17.492 119.995 +0.00 -0.00    +0.000    124.421
ATOM     13  CM  UNL     1      37.553  16.490 118.650 +0.00 -0.00    +0.000    124.421
ATOM     14  C   UNL     1      38.963  16.224 116.115 -0.14 -0.00    +0.000    124.421
ATOM     15  N   UNL     1      39.740  14.966 116.097 -0.29 -0.00    +0.000    124.421
ATOM     16  H   UNL     1      39.649  14.526 117.012 -0.12 -0.00    +0.000    124.421
ATOM     17  C   UNL     1      41.188  15.226 115.920 -0.34 -0.00    +0.000    124.421
ATOM     18  C   UNL     1      41.835  15.749 117.201 -0.27 -0.00    +0.000    124.421
ATOM     19  C   UNL     1      39.179  13.977 115.143 -0.40 -0.00    +0.000    124.421
ATOM     20  C   UNL     1      38.588  12.724 115.807 -0.53 -0.00    +0.000    124.421
ATOM     21  O   UNL     1      35.076  16.998 123.525 -0.38 -0.00    +0.000    124.421
ATOM     22  O   UNL     1      34.102  14.936 123.881 -0.69 -0.00    +0.000    124.421
ATOM     23  C   UNL     1      35.117  15.601 123.533 -0.50 -0.00    +0.000    124.421
ATOM     24  N   UNL     1      36.339  14.938 123.184 -0.42 -0.00    +0.000    124.421
ATOM     25  H   UNL     1      37.147  15.491 123.074 -0.01 -0.00    +0.000    124.421
ATOM     26  C   UNL     1      36.465  13.520 122.984 -0.48 -0.00    +0.000    124.421
ATOM     27  C   UNL     1      37.081  13.042 121.819 -0.45 -0.00    +0.000    124.421
ATOM     28  C   UNL     1      37.196  11.669 121.590 -0.43 -0.00    +0.000    124.421
ATOM     29  C   UNL     1      36.690  10.743 122.518 -0.59 -0.00    +0.000    124.421
ATOM     30  C   UNL     1      36.041  11.224 123.670 -0.55 -0.00    +0.000    124.421
ATOM     31  C   UNL     1      35.926  12.598 123.899 -0.49 -0.00    +0.000    124.421
ATOM     32  CM  UNL     1      36.567  12.132 122.746 +0.00 -0.00    +0.000    124.421
ATOM     33  C   UNL     1      36.817   9.288 122.259 -0.70 -0.00    +0.000    124.421
ATOM     34  N   UNL     1      37.065   8.359 123.321 -0.71 -0.00    +0.000    124.421
ATOM     35  O   UNL     1      36.718   8.856 121.078 -2.62 -0.00    +0.000    124.421
ATOM     36  H   UNL     1      37.228   8.689 124.234 -0.53 -0.00    +0.000    124.421
ATOM     37  O   UNL     1      37.075   7.026 123.074 -1.84 -0.00    +0.000    124.421
ATOM     38  H   UNL     1      37.211   6.874 122.126 -0.22 -0.00    +0.000    124.421
TER
ENDMDL
MODEL       32
USER    Run = 32
USER    Cluster Rank = 4
USER    Number of conformations in this cluster = 7
USER  
USER    RMSD from reference structure       = 126.861 A
USER  
USER    Estimated Free Energy of Binding    =  -12.55 kcal/mol  [=(1)+(2)+(3)-(4)]
USER    Estimated Inhibition Constant, Ki   =  634.53 pM (picomolar)  [Temperature = 298.15 K]
USER    
USER    (1) Final Intermolecular Energy     =  -15.53 kcal/mol
USER        vdW + Hbond + desolv Energy     =  -15.53 kcal/mol
USER        Electrostatic Energy            =   +0.00 kcal/mol
USER    (2) Final Total Internal Energy     =   -2.70 kcal/mol
USER    (3) Torsional Free Energy           =   +2.98 kcal/mol
USER    (4) Unbound System's Energy  [=(2)] =   -2.70 kcal/mol
USER    
USER    
USER  
USER    DPF = ligand_dock.biased.dpf
USER    NEWDPF move	ligand.dum.pdbqt
USER    NEWDPF about	1.858000 0.218000 -0.021000
USER    NEWDPF tran0	35.418915 17.042017 124.145488
USER    NEWDPF axisangle0	0.042353 -0.870486 -0.490368 -154.164179
USER    NEWDPF quaternion0	0.041282 -0.848455 -0.477957 -0.223555
USER    NEWDPF dihe0	-116.61 36.86 6.23 -176.03 -179.36 173.74 92.27 -128.40 116.50 28.55 
USER  
USER                              x       y       z    vdW   Elec        q     RMS 
ATOM      1  C   UNL     1      34.837  17.920 122.882 -0.35 -0.00    +0.000    126.861
ATOM      2  C   UNL     1      36.298  17.847 122.547 -0.19 -0.00    +0.000    126.861
ATOM      3  C   UNL     1      36.711  17.420 121.276 -0.15 -0.00    +0.000    126.861
ATOM      4  C   UNL     1      38.070  17.315 120.971 -0.09 -0.00    +0.000    126.861
ATOM      5  C   UNL     1      39.037  17.624 121.939 -0.10 -0.00    +0.000    126.861
ATOM      6  C   UNL     1      40.404  17.520 121.641 -0.11 -0.00    +0.000    126.861
ATOM      7  C   UNL     1      41.368  17.826 122.616 -0.18 -0.00    +0.000    126.861
ATOM      8  C   UNL     1      40.955  18.240 123.892 -0.24 -0.00    +0.000    126.861
ATOM      9  C   UNL     1      39.595  18.344 124.197 -0.19 -0.00    +0.000    126.861
ATOM     10  C   UNL     1      38.629  18.039 123.228 -0.15 -0.00    +0.000    126.861
ATOM     11  C   UNL     1      37.261  18.142 123.525 -0.16 -0.00    +0.000    126.861
ATOM     12  CM  UNL     1      37.668  17.731 122.248 +0.00 -0.00    +0.000    126.861
ATOM     13  CM  UNL     1      39.998  17.932 122.919 +0.00 -0.00    +0.000    126.861
ATOM     14  C   UNL     1      42.837  17.736 122.299 -0.25 -0.00    +0.000    126.861
ATOM     15  N   UNL     1      43.261  16.320 122.251 -0.37 -0.00    +0.000    126.861
ATOM     16  H   UNL     1      44.184  16.251 122.678 -0.04 -0.00    +0.000    126.861
ATOM     17  C   UNL     1      43.431  15.853 120.854 -0.29 -0.00    +0.000    126.861
ATOM     18  C   UNL     1      44.288  16.813 120.031 -0.18 -0.00    +0.000    126.861
ATOM     19  C   UNL     1      42.393  15.449 123.081 -0.35 +0.00    +0.000    126.861
ATOM     20  C   UNL     1      41.389  14.608 122.278 -0.43 -0.00    +0.000    126.861
ATOM     21  O   UNL     1      34.558  17.037 123.963 -0.44 -0.00    +0.000    126.861
ATOM     22  O   UNL     1      33.785  14.877 124.215 -0.65 -0.00    +0.000    126.861
ATOM     23  C   UNL     1      34.719  15.652 123.867 -0.57 -0.00    +0.000    126.861
ATOM     24  N   UNL     1      35.972  15.126 123.410 -0.45 -0.00    +0.000    126.861
ATOM     25  H   UNL     1      36.722  15.754 123.300 -0.01 -0.00    +0.000    126.861
ATOM     26  C   UNL     1      36.207  13.742 123.101 -0.45 -0.00    +0.000    126.861
ATOM     27  C   UNL     1      35.937  12.765 124.070 -0.39 -0.00    +0.000    126.861
ATOM     28  C   UNL     1      36.177  11.415 123.802 -0.58 -0.00    +0.000    126.861
ATOM     29  C   UNL     1      36.700  11.013 122.561 -0.59 -0.00    +0.000    126.861
ATOM     30  C   UNL     1      37.003  11.996 121.603 -0.50 -0.00    +0.000    126.861
ATOM     31  C   UNL     1      36.763  13.348 121.871 -0.35 -0.00    +0.000    126.861
ATOM     32  CM  UNL     1      36.464  12.380 122.835 +0.00 -0.00    +0.000    126.861
ATOM     33  C   UNL     1      36.953   9.576 122.294 -0.64 -0.00    +0.000    126.861
ATOM     34  N   UNL     1      37.130   8.637 123.361 -0.65 -0.00    +0.000    126.861
ATOM     35  O   UNL     1      37.028   9.170 121.102 -2.72 -0.00    +0.000    126.861
ATOM     36  H   UNL     1      37.159   8.953 124.293 -0.55 -0.00    +0.000    126.861
ATOM     37  O   UNL     1      37.259   7.315 123.094 -2.01 -0.00    +0.000    126.861
ATOM     38  H   UNL     1      37.308   7.182 122.135 -0.15 -0.00    +0.000    126.861
TER
ENDMDL
MODEL       30
USER    Run = 30
USER    Cluster Rank = 5
USER    Number of conformations in this cluster = 2
USER  
USER    RMSD from reference structure       = 127.508 A
USER  
USER    Estimated Free Energy of Binding    =  -12.43 kcal/mol  [=(1)+(2)+(3)-(4)]
USER    Estimated Inhibition Constant, Ki   =  769.54 pM (picomolar)  [Temperature = 298.15 K]
USER    
USER    (1) Final Intermolecular Energy     =  -15.42 kcal/mol
USER        vdW + Hbond + desolv Energy     =  -15.42 kcal/mol
USER        Electrostatic Energy            =   +0.00 kcal/mol
USER    (2) Final Total Internal Energy     =   -1.74 kcal/mol
USER    (3) Torsional Free Energy           =   +2.98 kcal/mol
USER    (4) Unbound System's Energy  [=(2)] =   -1.74 kcal/mol
USER    
USER    
USER  
USER    DPF = ligand_dock.biased.dpf
USER    NEWDPF move	ligand.dum.pdbqt
USER    NEWDPF about	1.858000 0.218000 -0.021000
USER    NEWDPF tran0	36.617530 13.597119 123.686659
USER    NEWDPF axisangle0	-0.924386 0.356734 0.135095 -164.399251
USER    NEWDPF quaternion0	-0.915833 0.353434 0.133845 -0.135722
USER    NEWDPF dihe0	19.34 -180.00 3.11 -44.54 -166.02 -135.68 178.99 -39.65 -96.62 -154.38 
USER  
USER                              x       y       z    vdW   Elec        q     RMS 
ATOM      1  C   UNL     1      36.731  14.677 122.451 -0.39 -0.00    +0.000    127.508
ATOM      2  C   UNL     1      35.880  15.432 123.430 -0.41 -0.00    +0.000    127.508
ATOM      3  C   UNL     1      34.702  14.857 123.931 -0.47 -0.00    +0.000    127.508
ATOM      4  C   UNL     1      33.887  15.568 124.815 -0.29 -0.00    +0.000    127.508
ATOM      5  C   UNL     1      34.233  16.872 125.199 -0.41 -0.00    +0.000    127.508
ATOM      6  C   UNL     1      33.419  17.594 126.086 -0.26 -0.00    +0.000    127.508
ATOM      7  C   UNL     1      33.768  18.901 126.463 -0.25 -0.00    +0.000    127.508
ATOM      8  C   UNL     1      34.938  19.481 125.951 -0.18 -0.00    +0.000    127.508
ATOM      9  C   UNL     1      35.753  18.770 125.067 -0.20 -0.00    +0.000    127.508
ATOM     10  C   UNL     1      35.410  17.465 124.686 -0.30 -0.00    +0.000    127.508
ATOM     11  C   UNL     1      36.223  16.742 123.799 -0.29 -0.00    +0.000    127.508
ATOM     12  CM  UNL     1      35.056  16.156 124.310 -0.06 -0.00    +0.000    127.508
ATOM     13  CM  UNL     1      34.587  18.181 125.575 -0.33 -0.00    +0.000    127.508
ATOM     14  C   UNL     1      32.910  19.676 127.429 -0.20 -0.00    +0.000    127.508
ATOM     15  N   UNL     1      31.524  19.163 127.403 -0.26 -0.00    +0.000    127.508
ATOM     16  H   UNL     1      31.442  18.511 126.624 -0.43 -0.00    +0.000    127.508
ATOM     17  C   UNL     1      30.551  20.246 127.122 -0.33 -0.00    +0.000    127.508
ATOM     18  C   UNL     1      29.107  19.757 127.226 -0.55 -0.00    +0.000    127.508
ATOM     19  C   UNL     1      31.204  18.358 128.608 -0.31 -0.00    +0.000    127.508
ATOM     20  C   UNL     1      30.962  16.868 128.325 -0.48 -0.00    +0.000    127.508
ATOM     21  O   UNL     1      37.250  13.511 123.082 -0.56 -0.00    +0.000    127.508
ATOM     22  O   UNL     1      35.292  12.350 123.457 -0.60 -0.00    +0.000    127.508
ATOM     23  C   UNL     1      36.524  12.322 123.184 -0.67 -0.00    +0.000    127.508
ATOM     24  N   UNL     1      37.206  11.072 123.018 -0.56 -0.00    +0.000    127.508
ATOM     25  H   UNL     1      38.189  11.088 122.964 +0.02 -0.00    +0.000    127.508
ATOM     26  C   UNL     1      36.551   9.796 122.924 -0.60 -0.00    +0.000    127.508
ATOM     27  C   UNL     1      35.276   9.718 122.347 -0.57 -0.00    +0.000    127.508
ATOM     28  C   UNL     1      34.608   8.494 122.263 -0.60 -0.00    +0.000    127.508
ATOM     29  C   UNL     1      35.199   7.321 122.763 -0.64 -0.00    +0.000    127.508
ATOM     30  C   UNL     1      36.463   7.406 123.375 -0.64 -0.00    +0.000    127.508
ATOM     31  C   UNL     1      37.131   8.631 123.458 -0.35 -0.00    +0.000    127.508
ATOM     32  CM  UNL     1      35.871   8.561 122.855 +0.00 -0.00    +0.000    127.508
ATOM     33  C   UNL     1      34.476   6.029 122.671 -0.69 -0.00    +0.000    127.508
ATOM     34  N   UNL     1      33.108   5.966 122.249 -0.67 -0.00    +0.000    127.508
ATOM     35  O   UNL     1      35.069   4.961 122.984 -0.80 -0.00    +0.000    127.508
ATOM     36  H   UNL     1      32.607   6.798 122.084 -0.03 -0.00    +0.000    127.508
ATOM     37  O   UNL     1      32.500   4.768 122.075 -0.85 -0.00    +0.000    127.508
ATOM     38  H   UNL     1      33.111   4.057 122.324 -0.19 -0.00    +0.000    127.508
TER
ENDMDL
MODEL       99
USER    Run = 99
USER    Cluster Rank = 6
USER    Number of conformations in this cluster = 7
USER  
USER    RMSD from reference structure       = 127.389 A
USER  
USER    Estimated Free Energy of Binding    =  -12.19 kcal/mol  [=(1)+(2)+(3)-(4)]
USER    Estimated Inhibition Constant, Ki   =    1.16 nM (nanomolar)  [Temperature = 298.15 K]
USER    
USER    (1) Final Intermolecular Energy     =  -15.17 kcal/mol
USER        vdW + Hbond + desolv Energy     =  -15.17 kcal/mol
USER        Electrostatic Energy            =   +0.00 kcal/mol
USER    (2) Final Total Internal Energy     =   -1.96 kcal/mol
USER    (3) Torsional Free Energy           =   +2.98 kcal/mol
USER    (4) Unbound System's Energy  [=(2)] =   -1.96 kcal/mol
USER    
USER    
USER  
USER    DPF = ligand_dock.biased.dpf
USER    NEWDPF move	ligand.dum.pdbqt
USER    NEWDPF about	1.858000 0.218000 -0.021000
USER    NEWDPF tran0	37.805497 17.113601 124.068174
USER    NEWDPF axisangle0	-0.035685 0.741889 0.669573 176.471944
USER    NEWDPF quaternion0	-0.035668 0.741537 0.669255 0.030783
USER    NEWDPF dihe0	-38.09 -179.90 26.95 18.20 -8.69 -151.84 68.48 47.76 145.28 -174.86 
USER  
USER                              x       y       z    vdW   Elec        q     RMS 
ATOM      1  C   UNL     1      37.829  18.547 123.261 -0.14 -0.00    +0.000    127.389
ATOM      2  C   UNL     1      39.276  18.151 123.210 -0.14 -0.00    +0.000    127.389
ATOM      3  C   UNL     1      40.079  18.262 124.356 -0.23 -0.00    +0.000    127.389
ATOM      4  C   UNL     1      41.435  17.929 124.307 -0.27 -0.00    +0.000    127.389
ATOM      5  C   UNL     1      42.010  17.493 123.104 -0.29 -0.00    +0.000    127.389
ATOM      6  C   UNL     1      43.372  17.158 123.045 -0.30 -0.00    +0.000    127.389
ATOM      7  C   UNL     1      43.944  16.727 121.838 -0.28 -0.00    +0.000    127.389
ATOM      8  C   UNL     1      43.145  16.629 120.688 -0.19 -0.00    +0.000    127.389
ATOM      9  C   UNL     1      41.789  16.962 120.738 -0.14 -0.00    +0.000    127.389
ATOM     10  C   UNL     1      41.212  17.394 121.941 -0.16 -0.00    +0.000    127.389
ATOM     11  C   UNL     1      39.851  17.731 122.001 -0.11 -0.00    +0.000    127.389
ATOM     12  CM  UNL     1      40.643  17.827 123.153 +0.00 -0.00    +0.000    127.389
ATOM     13  CM  UNL     1      42.579  17.061 121.892 +0.00 -0.00    +0.000    127.389
ATOM     14  C   UNL     1      45.400  16.347 121.770 -0.19 +0.00    +0.000    127.389
ATOM     15  N   UNL     1      46.210  17.290 122.570 -0.31 -0.00    +0.000    127.389
ATOM     16  H   UNL     1      45.814  17.329 123.509 -0.06 -0.00    +0.000    127.389
ATOM     17  C   UNL     1      46.116  18.670 122.039 -0.16 -0.00    +0.000    127.389
ATOM     18  C   UNL     1      45.737  19.675 123.126 -0.18 -0.00    +0.000    127.389
ATOM     19  C   UNL     1      47.600  16.807 122.764 -0.38 +0.00    +0.000    127.389
ATOM     20  C   UNL     1      47.947  16.447 124.216 -0.51 +0.00    +0.000    127.389
ATOM     21  O   UNL     1      37.060  17.451 123.745 -0.25 -0.00    +0.000    127.389
ATOM     22  O   UNL     1      38.562  15.709 123.567 -0.26 -0.00    +0.000    127.389
ATOM     23  C   UNL     1      37.374  16.121 123.455 -0.32 -0.00    +0.000    127.389
ATOM     24  N   UNL     1      36.340  15.247 122.987 -0.38 -0.00    +0.000    127.389
ATOM     25  H   UNL     1      35.467  15.645 122.764 -0.02 -0.00    +0.000    127.389
ATOM     26  C   UNL     1      36.490  13.826 122.823 -0.43 -0.00    +0.000    127.389
ATOM     27  C   UNL     1      37.147  13.332 121.688 -0.41 -0.00    +0.000    127.389
ATOM     28  C   UNL     1      37.288  11.955 121.493 -0.44 -0.00    +0.000    127.389
ATOM     29  C   UNL     1      36.766  11.043 122.426 -0.56 -0.00    +0.000    127.389
ATOM     30  C   UNL     1      36.075  11.540 123.546 -0.62 -0.00    +0.000    127.389
ATOM     31  C   UNL     1      35.935  12.918 123.741 -0.53 -0.00    +0.000    127.389
ATOM     32  CM  UNL     1      36.617  12.435 122.619 +0.00 -0.00    +0.000    127.389
ATOM     33  C   UNL     1      36.919   9.584 122.203 -0.64 -0.00    +0.000    127.389
ATOM     34  N   UNL     1      37.036   8.670 123.299 -0.67 -0.00    +0.000    127.389
ATOM     35  O   UNL     1      36.961   9.137 121.025 -2.70 -0.00    +0.000    127.389
ATOM     36  H   UNL     1      37.091   9.013 124.221 -0.56 -0.00    +0.000    127.389
ATOM     37  O   UNL     1      37.073   7.334 123.074 -2.15 -0.00    +0.000    127.389
ATOM     38  H   UNL     1      37.430   7.165 122.188 -0.18 -0.00    +0.000    127.389
TER
ENDMDL
MODEL       79
USER    Run = 79
USER    Cluster Rank = 7
USER    Number of conformations in this cluster = 2
USER  
USER    RMSD from reference structure       = 123.436 A
USER  
USER    Estimated Free Energy of Binding    =  -12.05 kcal/mol  [=(1)+(2)+(3)-(4)]
USER    Estimated Inhibition Constant, Ki   =    1.48 nM (nanomolar)  [Temperature = 298.15 K]
USER    
USER    (1) Final Intermolecular Energy     =  -15.03 kcal/mol
USER        vdW + Hbond + desolv Energy     =  -15.03 kcal/mol
USER        Electrostatic Energy            =   +0.00 kcal/mol
USER    (2) Final Total Internal Energy     =   -2.14 kcal/mol
USER    (3) Torsional Free Energy           =   +2.98 kcal/mol
USER    (4) Unbound System's Energy  [=(2)] =   -2.14 kcal/mol
USER    
USER    
USER  
USER    DPF = ligand_dock.biased.dpf
USER    NEWDPF move	ligand.dum.pdbqt
USER    NEWDPF about	1.858000 0.218000 -0.021000
USER    NEWDPF tran0	37.024026 16.931507 121.986151
USER    NEWDPF axisangle0	-0.808993 -0.247368 -0.533234 -157.182375
USER    NEWDPF quaternion0	-0.793008 -0.242481 -0.522698 -0.197808
USER    NEWDPF dihe0	-108.71 116.18 -165.44 -77.65 -15.47 148.88 35.86 112.23 -114.76 -7.99 
USER  
USER                              x       y       z    vdW   Elec        q     RMS 
ATOM      1  C   UNL     1      37.682  18.284 121.318 -0.10 -0.00    +0.000    123.436
ATOM      2  C   UNL     1      36.764  17.824 120.222 -0.11 -0.00    +0.000    123.436
ATOM      3  C   UNL     1      35.451  18.311 120.151 -0.20 -0.00    +0.000    123.436
ATOM      4  C   UNL     1      34.581  17.860 119.155 -0.16 -0.00    +0.000    123.436
ATOM      5  C   UNL     1      35.010  16.904 118.224 -0.08 -0.00    +0.000    123.436
ATOM      6  C   UNL     1      34.142  16.444 117.221 -0.11 -0.00    +0.000    123.436
ATOM      7  C   UNL     1      34.576  15.483 116.294 -0.19 -0.00    +0.000    123.436
ATOM      8  C   UNL     1      35.886  14.984 116.374 -0.22 -0.00    +0.000    123.436
ATOM      9  C   UNL     1      36.755  15.436 117.370 -0.18 -0.00    +0.000    123.436
ATOM     10  C   UNL     1      36.328  16.395 118.299 -0.14 -0.00    +0.000    123.436
ATOM     11  C   UNL     1      37.194  16.855 119.302 -0.11 -0.00    +0.000    123.436
ATOM     12  CM  UNL     1      35.888  17.358 119.226 +0.00 -0.00    +0.000    123.436
ATOM     13  CM  UNL     1      35.450  15.941 117.297 +0.00 -0.00    +0.000    123.436
ATOM     14  C   UNL     1      33.658  14.998 115.203 -0.22 -0.00    +0.000    123.436
ATOM     15  N   UNL     1      33.067  13.695 115.577 -0.34 -0.00    +0.000    123.436
ATOM     16  H   UNL     1      33.801  13.121 115.989 -0.02 -0.00    +0.000    123.436
ATOM     17  C   UNL     1      32.599  12.950 114.384 -0.39 -0.00    +0.000    123.436
ATOM     18  C   UNL     1      33.726  12.719 113.378 -0.36 -0.00    +0.000    123.436
ATOM     19  C   UNL     1      32.046  13.832 116.646 -0.45 -0.00    +0.000    123.436
ATOM     20  C   UNL     1      31.450  12.500 117.124 -0.59 -0.00    +0.000    123.436
ATOM     21  O   UNL     1      37.419  17.529 122.497 -0.16 -0.00    +0.000    123.436
ATOM     22  O   UNL     1      38.576  15.709 123.316 -0.35 -0.00    +0.000    123.436
ATOM     23  C   UNL     1      37.652  16.154 122.580 -0.28 -0.00    +0.000    123.436
ATOM     24  N   UNL     1      36.857  15.263 121.788 -0.26 -0.00    +0.000    123.436
ATOM     25  H   UNL     1      36.257  15.658 121.113 -0.01 -0.00    +0.000    123.436
ATOM     26  C   UNL     1      36.875  13.831 121.912 -0.32 -0.00    +0.000    123.436
ATOM     27  C   UNL     1      37.407  13.058 120.871 -0.43 -0.00    +0.000    123.436
ATOM     28  C   UNL     1      37.417  11.663 120.957 -0.41 -0.00    +0.000    123.436
ATOM     29  C   UNL     1      36.886  11.011 122.083 -0.52 -0.00    +0.000    123.436
ATOM     30  C   UNL     1      36.320  11.787 123.110 -0.62 -0.00    +0.000    123.436
ATOM     31  C   UNL     1      36.311  13.183 123.024 -0.51 -0.00    +0.000    123.436
ATOM     32  CM  UNL     1      36.869  12.422 121.992 +0.00 -0.00    +0.000    123.436
ATOM     33  C   UNL     1      36.900   9.530 122.158 -0.65 -0.00    +0.000    123.436
ATOM     34  N   UNL     1      37.160   8.846 123.390 -0.59 -0.00    +0.000    123.436
ATOM     35  O   UNL     1      36.693   8.853 121.114 -2.62 -0.00    +0.000    123.436
ATOM     36  H   UNL     1      37.406   9.360 124.193 -0.62 -0.00    +0.000    123.436
ATOM     37  O   UNL     1      37.067   7.496 123.455 -2.18 -0.00    +0.000    123.436
ATOM     38  H   UNL     1      37.044   7.218 124.384 -0.54 -0.00    +0.000    123.436
TER
ENDMDL
MODEL        7
USER    Run = 7
USER    Cluster Rank = 8
USER    Number of conformations in this cluster = 1
USER  
USER    RMSD from reference structure       = 130.008 A
USER  
USER    Estimated Free Energy of Binding    =  -11.73 kcal/mol  [=(1)+(2)+(3)-(4)]
USER    Estimated Inhibition Constant, Ki   =    2.53 nM (nanomolar)  [Temperature = 298.15 K]
USER    
USER    (1) Final Intermolecular Energy     =  -14.71 kcal/mol
USER        vdW + Hbond + desolv Energy     =  -14.71 kcal/mol
USER        Electrostatic Energy            =   +0.00 kcal/mol
USER    (2) Final Total Internal Energy     =   -2.14 kcal/mol
USER    (3) Torsional Free Energy           =   +2.98 kcal/mol
USER    (4) Unbound System's Energy  [=(2)] =   -2.14 kcal/mol
USER    
USER    
USER  
USER    DPF = ligand_dock.biased.dpf
USER    NEWDPF move	ligand.dum.pdbqt
USER    NEWDPF about	1.858000 0.218000 -0.021000
USER    NEWDPF tran0	37.411858 17.486292 124.414580
USER    NEWDPF axisangle0	-0.373512 0.840810 0.391825 -144.637214
USER    NEWDPF quaternion0	-0.355868 0.801090 0.373315 -0.303724
USER    NEWDPF dihe0	-76.10 -164.46 12.54 -38.66 167.81 -75.18 -91.20 4.67 88.35 33.18 
USER  
USER                              x       y       z    vdW   Elec        q     RMS 
ATOM      1  C   UNL     1      38.356  18.454 123.476 -0.15 -0.00    +0.000    130.008
ATOM      2  C   UNL     1      39.115  18.460 124.771 -0.19 -0.00    +0.000    130.008
ATOM      3  C   UNL     1      40.503  18.258 124.777 -0.27 -0.00    +0.000    130.008
ATOM      4  C   UNL     1      41.210  18.228 125.982 -0.29 -0.00    +0.000    130.008
ATOM      5  C   UNL     1      40.534  18.385 127.200 -0.33 -0.00    +0.000    130.008
ATOM      6  C   UNL     1      41.236  18.355 128.415 -0.37 -0.00    +0.000    130.008
ATOM      7  C   UNL     1      40.553  18.508 129.633 -0.23 -0.00    +0.000    130.008
ATOM      8  C   UNL     1      39.162  18.696 129.628 -0.17 -0.00    +0.000    130.008
ATOM      9  C   UNL     1      38.456  18.726 128.423 -0.16 -0.00    +0.000    130.008
ATOM     10  C   UNL     1      39.131  18.573 127.204 -0.16 -0.00    +0.000    130.008
ATOM     11  C   UNL     1      38.431  18.603 125.989 -0.10 -0.00    +0.000    130.008
ATOM     12  CM  UNL     1      39.820  18.418 125.987 +0.00 -0.00    +0.000    130.008
ATOM     13  CM  UNL     1      39.845  18.540 128.417 +0.00 -0.00    +0.000    130.008
ATOM     14  C   UNL     1      41.300  18.495 130.940 -0.22 -0.00    +0.000    130.008
ATOM     15  N   UNL     1      42.614  19.155 130.781 -0.16 -0.00    +0.000    130.008
ATOM     16  H   UNL     1      42.723  19.411 129.800 -0.00 -0.00    +0.000    130.008
ATOM     17  C   UNL     1      43.727  18.223 131.078 -0.32 -0.00    +0.000    130.008
ATOM     18  C   UNL     1      44.190  17.472 129.830 -0.39 -0.00    +0.000    130.008
ATOM     19  C   UNL     1      42.686  20.441 131.519 -0.06 -0.00    +0.000    130.008
ATOM     20  C   UNL     1      42.420  21.681 130.653 -0.03 -0.00    +0.000    130.008
ATOM     21  O   UNL     1      37.330  17.468 123.539 -0.23 -0.00    +0.000    130.008
ATOM     22  O   UNL     1      38.654  15.774 122.701 -0.32 -0.00    +0.000    130.008
ATOM     23  C   UNL     1      37.520  16.153 123.108 -0.31 -0.00    +0.000    130.008
ATOM     24  N   UNL     1      36.403  15.255 123.093 -0.39 -0.00    +0.000    130.008
ATOM     25  H   UNL     1      35.509  15.631 123.267 -0.01 -0.00    +0.000    130.008
ATOM     26  C   UNL     1      36.498  13.843 122.843 -0.43 -0.00    +0.000    130.008
ATOM     27  C   UNL     1      36.042  12.940 123.813 -0.54 -0.00    +0.000    130.008
ATOM     28  C   UNL     1      36.143  11.562 123.605 -0.61 -0.00    +0.000    130.008
ATOM     29  C   UNL     1      36.712  11.057 122.423 -0.58 -0.00    +0.000    130.008
ATOM     30  C   UNL     1      37.202  11.964 121.465 -0.46 -0.00    +0.000    130.008
ATOM     31  C   UNL     1      37.099  13.343 121.675 -0.41 -0.00    +0.000    130.008
ATOM     32  CM  UNL     1      36.616  12.451 122.638 +0.00 -0.00    +0.000    130.008
ATOM     33  C   UNL     1      36.817   9.592 122.217 -0.67 -0.00    +0.000    130.008
ATOM     34  N   UNL     1      37.072   8.701 123.309 -0.66 -0.00    +0.000    130.008
ATOM     35  O   UNL     1      36.693   9.118 121.055 -2.61 -0.00    +0.000    130.008
ATOM     36  H   UNL     1      37.255   9.064 124.206 -0.59 -0.00    +0.000    130.008
ATOM     37  O   UNL     1      37.063   7.360 123.113 -2.17 -0.00    +0.000    130.008
ATOM     38  H   UNL     1      37.066   7.172 122.162 -0.10 -0.00    +0.000    130.008
TER
ENDMDL
MODEL       21
USER    Run = 21
USER    Cluster Rank = 9
USER    Number of conformations in this cluster = 1
USER  
USER    RMSD from reference structure       = 122.818 A
USER  
USER    Estimated Free Energy of Binding    =  -11.31 kcal/mol  [=(1)+(2)+(3)-(4)]
USER    Estimated Inhibition Constant, Ki   =    5.15 nM (nanomolar)  [Temperature = 298.15 K]
USER    
USER    (1) Final Intermolecular Energy     =  -14.29 kcal/mol
USER        vdW + Hbond + desolv Energy     =  -14.29 kcal/mol
USER        Electrostatic Energy            =   +0.00 kcal/mol
USER    (2) Final Total Internal Energy     =   -1.60 kcal/mol
USER    (3) Torsional Free Energy           =   +2.98 kcal/mol
USER    (4) Unbound System's Energy  [=(2)] =   -1.60 kcal/mol
USER    
USER    
USER  
USER    DPF = ligand_dock.biased.dpf
USER    NEWDPF move	ligand.dum.pdbqt
USER    NEWDPF about	1.858000 0.218000 -0.021000
USER    NEWDPF tran0	37.482718 14.356124 121.065843
USER    NEWDPF axisangle0	-0.871117 -0.074973 -0.485320 170.183623
USER    NEWDPF quaternion0	-0.867922 -0.074698 -0.483540 0.085559
USER    NEWDPF dihe0	-115.49 133.92 6.29 141.65 -127.70 -98.58 -180.00 164.81 -106.49 167.46 
USER  
USER                              x       y       z    vdW   Elec        q     RMS 
ATOM      1  C   UNL     1      38.648  14.849 120.014 -0.25 -0.00    +0.000    122.818
ATOM      2  C   UNL     1      37.467  14.695 119.101 -0.25 -0.00    +0.000    122.818
ATOM      3  C   UNL     1      37.246  13.483 118.430 -0.37 -0.00    +0.000    122.818
ATOM      4  C   UNL     1      36.169  13.345 117.552 -0.18 -0.00    +0.000    122.818
ATOM      5  C   UNL     1      35.304  14.425 117.321 -0.30 -0.00    +0.000    122.818
ATOM      6  C   UNL     1      34.220  14.295 116.439 -0.30 -0.00    +0.000    122.818
ATOM      7  C   UNL     1      33.361  15.381 116.208 -0.21 -0.00    +0.000    122.818
ATOM      8  C   UNL     1      33.590  16.599 116.868 -0.14 -0.00    +0.000    122.818
ATOM      9  C   UNL     1      34.667  16.736 117.746 -0.09 -0.00    +0.000    122.818
ATOM     10  C   UNL     1      35.530  15.656 117.981 -0.12 -0.00    +0.000    122.818
ATOM     11  C   UNL     1      36.614  15.784 118.862 -0.17 -0.00    +0.000    122.818
ATOM     12  CM  UNL     1      36.389  14.565 118.208 +0.00 -0.00    +0.000    122.818
ATOM     13  CM  UNL     1      34.446  15.516 117.094 +0.00 -0.00    +0.000    122.818
ATOM     14  C   UNL     1      32.184  15.245 115.277 -0.24 -0.00    +0.000    122.818
ATOM     15  N   UNL     1      31.948  13.821 114.961 -0.30 -0.00    +0.000    122.818
ATOM     16  H   UNL     1      31.116  13.760 114.375 -0.55 -0.00    +0.000    122.818
ATOM     17  C   UNL     1      31.636  13.040 116.181 -0.50 -0.00    +0.000    122.818
ATOM     18  C   UNL     1      30.528  13.691 117.007 -0.47 +0.00    +0.000    122.818
ATOM     19  C   UNL     1      33.038  13.245 114.133 -0.37 -0.00    +0.000    122.818
ATOM     20  C   UNL     1      32.643  11.976 113.364 -0.49 -0.00    +0.000    122.818
ATOM     21  O   UNL     1      38.213  14.745 121.366 -0.32 -0.00    +0.000    122.818
ATOM     22  O   UNL     1      37.755  13.423 123.201 -0.58 -0.00    +0.000    122.818
ATOM     23  C   UNL     1      37.837  13.530 121.946 -0.48 -0.00    +0.000    122.818
ATOM     24  N   UNL     1      37.588  12.401 121.099 -0.48 -0.00    +0.000    122.818
ATOM     25  H   UNL     1      37.815  12.483 120.144 -0.05 -0.00    +0.000    122.818
ATOM     26  C   UNL     1      37.030  11.155 121.550 -0.45 -0.00    +0.000    122.818
ATOM     27  C   UNL     1      36.102  11.158 122.601 -0.60 -0.00    +0.000    122.818
ATOM     28  C   UNL     1      35.560   9.960 123.073 -0.57 -0.00    +0.000    122.818
ATOM     29  C   UNL     1      35.942   8.731 122.509 -0.64 -0.00    +0.000    122.818
ATOM     30  C   UNL     1      36.899   8.726 121.478 -0.56 -0.00    +0.000    122.818
ATOM     31  C   UNL     1      37.441   9.926 121.006 -0.10 -0.00    +0.000    122.818
ATOM     32  CM  UNL     1      36.495   9.943 122.036 +0.00 -0.00    +0.000    122.818
ATOM     33  C   UNL     1      35.361   7.466 123.023 -0.74 -0.00    +0.000    122.818
ATOM     34  N   UNL     1      34.045   7.424 123.587 -0.67 -0.00    +0.000    122.818
ATOM     35  O   UNL     1      36.042   6.406 122.978 -1.07 -0.00    +0.000    122.818
ATOM     36  H   UNL     1      33.535   8.258 123.706 -0.24 -0.00    +0.000    122.818
ATOM     37  O   UNL     1      33.497   6.241 123.957 -0.87 -0.00    +0.000    122.818
ATOM     38  H   UNL     1      34.158   5.537 123.867 -0.56 -0.00    +0.000    122.818
TER
ENDMDL
MODEL       12
USER    Run = 12
USER    Cluster Rank = 10
USER    Number of conformations in this cluster = 2
USER  
USER    RMSD from reference structure       = 125.624 A
USER  
USER    Estimated Free Energy of Binding    =  -11.12 kcal/mol  [=(1)+(2)+(3)-(4)]
USER    Estimated Inhibition Constant, Ki   =    7.06 nM (nanomolar)  [Temperature = 298.15 K]
USER    
USER    (1) Final Intermolecular Energy     =  -14.10 kcal/mol
USER        vdW + Hbond + desolv Energy     =  -14.10 kcal/mol
USER        Electrostatic Energy            =   +0.00 kcal/mol
USER    (2) Final Total Internal Energy     =   -2.13 kcal/mol
USER    (3) Torsional Free Energy           =   +2.98 kcal/mol
USER    (4) Unbound System's Energy  [=(2)] =   -2.13 kcal/mol
USER    
USER    
USER  
USER    DPF = ligand_dock.biased.dpf
USER    NEWDPF move	ligand.dum.pdbqt
USER    NEWDPF about	1.858000 0.218000 -0.021000
USER    NEWDPF tran0	39.647736 17.013248 123.214114
USER    NEWDPF axisangle0	-0.023684 -0.834615 -0.550324 -151.742927
USER    NEWDPF quaternion0	-0.022968 -0.809368 -0.533677 -0.244098
USER    NEWDPF dihe0	-153.20 39.89 7.12 -71.82 -167.95 66.44 -141.58 94.77 116.90 171.66 
USER  
USER                              x       y       z    vdW   Elec        q     RMS 
ATOM      1  C   UNL     1      39.034  18.078 122.120 -0.11 -0.00    +0.000    125.624
ATOM      2  C   UNL     1      40.430  17.889 121.603 -0.09 -0.00    +0.000    125.624
ATOM      3  C   UNL     1      41.474  18.699 122.074 -0.09 -0.00    +0.000    125.624
ATOM      4  C   UNL     1      42.769  18.552 121.571 -0.10 -0.00    +0.000    125.624
ATOM      5  C   UNL     1      43.034  17.600 120.576 -0.10 -0.00    +0.000    125.624
ATOM      6  C   UNL     1      44.332  17.446 120.063 -0.10 -0.00    +0.000    125.624
ATOM      7  C   UNL     1      44.591  16.494 119.064 -0.16 -0.00    +0.000    125.624
ATOM      8  C   UNL     1      43.543  15.693 118.581 -0.24 -0.00    +0.000    125.624
ATOM      9  C   UNL     1      42.249  15.841 119.086 -0.05 -0.00    +0.000    125.624
ATOM     10  C   UNL     1      41.984  16.790 120.083 -0.13 -0.00    +0.000    125.624
ATOM     11  C   UNL     1      40.687  16.945 120.596 -0.12 -0.00    +0.000    125.624
ATOM     12  CM  UNL     1      41.729  17.746 121.084 +0.00 -0.00    +0.000    125.624
ATOM     13  CM  UNL     1      43.289  16.644 119.575 +0.00 -0.00    +0.000    125.624
ATOM     14  C   UNL     1      45.984  16.309 118.521 -0.19 -0.00    +0.000    125.624
ATOM     15  N   UNL     1      46.000  15.217 117.524 -0.26 -0.00    +0.000    125.624
ATOM     16  H   UNL     1      45.355  14.493 117.837 -0.57 -0.00    +0.000    125.624
ATOM     17  C   UNL     1      47.330  14.566 117.457 -0.30 -0.00    +0.000    125.624
ATOM     18  C   UNL     1      48.221  14.966 118.632 -0.32 +0.00    +0.000    125.624
ATOM     19  C   UNL     1      45.471  15.655 116.208 -0.25 -0.00    +0.000    125.624
ATOM     20  C   UNL     1      46.545  15.835 115.125 -0.25 -0.00    +0.000    125.624
ATOM     21  O   UNL     1      38.777  17.118 123.139 -0.24 -0.00    +0.000    125.624
ATOM     22  O   UNL     1      39.819  15.059 123.077 -0.47 -0.00    +0.000    125.624
ATOM     23  C   UNL     1      38.772  15.742 122.895 -0.30 -0.00    +0.000    125.624
ATOM     24  N   UNL     1      37.578  15.127 122.396 -0.32 -0.00    +0.000    125.624
ATOM     25  H   UNL     1      36.838  15.716 122.120 -0.00 -0.00    +0.000    125.624
ATOM     26  C   UNL     1      37.386  13.708 122.271 -0.44 -0.00    +0.000    125.624
ATOM     27  C   UNL     1      37.233  12.931 123.428 -0.53 -0.00    +0.000    125.624
ATOM     28  C   UNL     1      37.066  11.546 123.337 -0.59 -0.00    +0.000    125.624
ATOM     29  C   UNL     1      37.059  10.908 122.085 -0.47 -0.00    +0.000    125.624
ATOM     30  C   UNL     1      37.248  11.684 120.927 -0.43 -0.00    +0.000    125.624
ATOM     31  C   UNL     1      37.414  13.069 121.019 -0.43 -0.00    +0.000    125.624
ATOM     32  CM  UNL     1      37.234  12.307 122.178 +0.00 -0.00    +0.000    125.624
ATOM     33  C   UNL     1      36.886   9.437 122.003 -0.66 -0.00    +0.000    125.624
ATOM     34  N   UNL     1      36.948   8.611 123.172 -0.69 -0.00    +0.000    125.624
ATOM     35  O   UNL     1      36.693   8.895 120.881 -2.61 +0.00    +0.000    125.624
ATOM     36  H   UNL     1      37.182   9.010 124.042 -0.51 -0.00    +0.000    125.624
ATOM     37  O   UNL     1      36.687   7.285 123.087 -1.96 -0.00    +0.000    125.624
ATOM     38  H   UNL     1      36.586   7.034 122.156 -0.06 -0.00    +0.000    125.624
TER
ENDMDL
MODEL        5
USER    Run = 5
USER    Cluster Rank = 11
USER    Number of conformations in this cluster = 1
USER  
USER    RMSD from reference structure       = 126.083 A
USER  
USER    Estimated Free Energy of Binding    =  -11.08 kcal/mol  [=(1)+(2)+(3)-(4)]
USER    Estimated Inhibition Constant, Ki   =    7.60 nM (nanomolar)  [Temperature = 298.15 K]
USER    
USER    (1) Final Intermolecular Energy     =  -14.06 kcal/mol
USER        vdW + Hbond + desolv Energy     =  -14.06 kcal/mol
USER        Electrostatic Energy            =   +0.00 kcal/mol
USER    (2) Final Total Internal Energy     =   -1.90 kcal/mol
USER    (3) Torsional Free Energy           =   +2.98 kcal/mol
USER    (4) Unbound System's Energy  [=(2)] =   -1.90 kcal/mol
USER    
USER    
USER  
USER    DPF = ligand_dock.biased.dpf
USER    NEWDPF move	ligand.dum.pdbqt
USER    NEWDPF about	1.858000 0.218000 -0.021000
USER    NEWDPF tran0	37.257432 11.616952 123.729427
USER    NEWDPF axisangle0	-0.452897 0.538852 0.710298 129.021184
USER    NEWDPF quaternion0	-0.408814 0.486403 0.641161 0.430344
USER    NEWDPF dihe0	45.61 -100.84 -21.58 121.68 25.23 -62.42 -152.04 -176.16 24.16 118.90 
USER  
USER                              x       y       z    vdW   Elec        q     RMS 
ATOM      1  C   UNL     1      35.788  12.277 123.393 -0.59 -0.00    +0.000    126.083
ATOM      2  C   UNL     1      36.678  13.484 123.336 -0.52 -0.00    +0.000    126.083
ATOM      3  C   UNL     1      36.236  14.712 123.851 -0.43 -0.00    +0.000    126.083
ATOM      4  C   UNL     1      37.046  15.847 123.769 -0.24 -0.00    +0.000    126.083
ATOM      5  C   UNL     1      38.305  15.773 123.157 -0.25 -0.00    +0.000    126.083
ATOM      6  C   UNL     1      39.125  16.909 123.069 -0.22 -0.00    +0.000    126.083
ATOM      7  C   UNL     1      40.383  16.829 122.451 -0.22 -0.00    +0.000    126.083
ATOM      8  C   UNL     1      40.820  15.604 121.923 -0.34 -0.00    +0.000    126.083
ATOM      9  C   UNL     1      40.010  14.469 122.006 -0.25 -0.00    +0.000    126.083
ATOM     10  C   UNL     1      38.752  14.542 122.621 -0.39 -0.00    +0.000    126.083
ATOM     11  C   UNL     1      37.932  13.407 122.709 -0.41 -0.00    +0.000    126.083
ATOM     12  CM  UNL     1      37.491  14.627 123.240 +0.00 -0.00    +0.000    126.083
ATOM     13  CM  UNL     1      39.566  15.688 122.537 +0.00 -0.00    +0.000    126.083
ATOM     14  C   UNL     1      41.277  18.039 122.369 -0.16 -0.00    +0.000    126.083
ATOM     15  N   UNL     1      41.383  18.684 123.695 -0.19 -0.00    +0.000    126.083
ATOM     16  H   UNL     1      42.247  19.224 123.717 -0.10 -0.00    +0.000    126.083
ATOM     17  C   UNL     1      41.512  17.679 124.777 -0.19 -0.00    +0.000    126.083
ATOM     18  C   UNL     1      40.869  18.157 126.079 -0.37 -0.00    +0.000    126.083
ATOM     19  C   UNL     1      40.306  19.681 123.918 -0.10 -0.00    +0.000    126.083
ATOM     20  C   UNL     1      39.872  20.435 122.653 -0.03 -0.00    +0.000    126.083
ATOM     21  O   UNL     1      36.593  11.104 123.467 -0.73 -0.00    +0.000    126.083
ATOM     22  O   UNL     1      36.873   8.831 123.185 -1.46 -0.00    +0.000    126.083
ATOM     23  C   UNL     1      36.139   9.850 123.051 -0.67 -0.00    +0.000    126.083
ATOM     24  N   UNL     1      34.850   9.745 122.432 -0.59 -0.00    +0.000    126.083
ATOM     25  H   UNL     1      34.380  10.580 122.204 -0.12 -0.00    +0.000    126.083
ATOM     26  C   UNL     1      34.198   8.502 122.121 -0.61 -0.00    +0.000    126.083
ATOM     27  C   UNL     1      33.895   7.607 123.157 -0.61 -0.00    +0.000    126.083
ATOM     28  C   UNL     1      33.281   6.383 122.880 -0.62 -0.00    +0.000    126.083
ATOM     29  C   UNL     1      32.963   6.024 121.559 -0.21 -0.00    +0.000    126.083
ATOM     30  C   UNL     1      33.299   6.908 120.517 -0.36 -0.00    +0.000    126.083
ATOM     31  C   UNL     1      33.913   8.133 120.795 -0.51 -0.00    +0.000    126.083
ATOM     32  CM  UNL     1      33.592   7.259 121.839 +0.00 -0.00    +0.000    126.083
ATOM     33  C   UNL     1      32.315   4.720 121.280 -0.28 -0.00    +0.000    126.083
ATOM     34  N   UNL     1      32.027   4.300 119.941 -0.02 +0.00    +0.000    126.083
ATOM     35  O   UNL     1      31.995   3.967 122.240 -0.31 -0.00    +0.000    126.083
ATOM     36  H   UNL     1      32.192   4.912 119.188 -0.25 +0.00    +0.000    126.083
ATOM     37  O   UNL     1      31.528   3.062 119.705 -1.09 -0.00    +0.000    126.083
ATOM     38  H   UNL     1      31.736   2.482 120.453 -0.62 -0.00    +0.000    126.083
TER
ENDMDL
MODEL       46
USER    Run = 46
USER    Cluster Rank = 12
USER    Number of conformations in this cluster = 2
USER  
USER    RMSD from reference structure       = 127.514 A
USER  
USER    Estimated Free Energy of Binding    =  -10.90 kcal/mol  [=(1)+(2)+(3)-(4)]
USER    Estimated Inhibition Constant, Ki   =   10.32 nM (nanomolar)  [Temperature = 298.15 K]
USER    
USER    (1) Final Intermolecular Energy     =  -13.88 kcal/mol
USER        vdW + Hbond + desolv Energy     =  -13.88 kcal/mol
USER        Electrostatic Energy            =   +0.00 kcal/mol
USER    (2) Final Total Internal Energy     =   -2.07 kcal/mol
USER    (3) Torsional Free Energy           =   +2.98 kcal/mol
USER    (4) Unbound System's Energy  [=(2)] =   -2.07 kcal/mol
USER    
USER    
USER  
USER    DPF = ligand_dock.biased.dpf
USER    NEWDPF move	ligand.dum.pdbqt
USER    NEWDPF about	1.858000 0.218000 -0.021000
USER    NEWDPF tran0	36.027479 17.365327 124.296290
USER    NEWDPF axisangle0	0.267172 -0.895088 -0.356982 -151.369068
USER    NEWDPF quaternion0	0.258876 -0.867295 -0.345898 -0.247261
USER    NEWDPF dihe0	-121.99 -180.00 19.59 -61.24 -173.28 -180.00 130.27 -162.45 87.73 16.21 
USER  
USER                              x       y       z    vdW   Elec        q     RMS 
ATOM      1  C   UNL     1      35.415  17.758 122.820 -0.31 -0.00    +0.000    127.514
ATOM      2  C   UNL     1      36.806  18.315 122.725 -0.15 -0.00    +0.000    127.514
ATOM      3  C   UNL     1      37.709  17.801 121.783 -0.10 -0.00    +0.000    127.514
ATOM      4  C   UNL     1      39.016  18.290 121.713 -0.06 -0.00    +0.000    127.514
ATOM      5  C   UNL     1      39.441  19.292 122.597 -0.05 -0.00    +0.000    127.514
ATOM      6  C   UNL     1      40.753  19.789 122.535 -0.04 -0.00    +0.000    127.514
ATOM      7  C   UNL     1      41.175  20.789 123.426 -0.04 -0.00    +0.000    127.514
ATOM      8  C   UNL     1      40.276  21.293 124.379 -0.03 -0.00    +0.000    127.514
ATOM      9  C   UNL     1      38.970  20.803 124.447 -0.04 -0.00    +0.000    127.514
ATOM     10  C   UNL     1      38.542  19.804 123.561 -0.06 -0.00    +0.000    127.514
ATOM     11  C   UNL     1      37.231  19.307 123.623 -0.12 -0.00    +0.000    127.514
ATOM     12  CM  UNL     1      38.124  18.802 122.667 +0.00 -0.00    +0.000    127.514
ATOM     13  CM  UNL     1      39.859  20.295 123.491 +0.00 -0.00    +0.000    127.514
ATOM     14  C   UNL     1      42.575  21.341 123.354 -0.06 -0.00    +0.000    127.514
ATOM     15  N   UNL     1      43.550  20.311 123.773 -0.11 -0.00    +0.000    127.514
ATOM     16  H   UNL     1      43.075  19.662 124.400 -0.56 -0.00    +0.000    127.514
ATOM     17  C   UNL     1      44.654  20.901 124.566 -0.07 -0.00    +0.000    127.514
ATOM     18  C   UNL     1      44.140  21.896 125.606 -0.12 -0.00    +0.000    127.514
ATOM     19  C   UNL     1      44.001  19.474 122.633 -0.14 -0.00    +0.000    127.514
ATOM     20  C   UNL     1      43.554  18.007 122.710 -0.25 -0.00    +0.000    127.514
ATOM     21  O   UNL     1      35.310  16.956 123.993 -0.38 -0.00    +0.000    127.514
ATOM     22  O   UNL     1      35.149  14.863 124.950 -0.54 -0.00    +0.000    127.514
ATOM     23  C   UNL     1      35.544  15.579 123.988 -0.49 -0.00    +0.000    127.514
ATOM     24  N   UNL     1      36.276  15.000 122.900 -0.38 -0.00    +0.000    127.514
ATOM     25  H   UNL     1      36.700  15.610 122.254 -0.00 -0.00    +0.000    127.514
ATOM     26  C   UNL     1      36.431  13.586 122.687 -0.41 -0.00    +0.000    127.514
ATOM     27  C   UNL     1      36.172  12.700 123.742 -0.56 -0.00    +0.000    127.514
ATOM     28  C   UNL     1      36.335  11.323 123.568 -0.61 -0.00    +0.000    127.514
ATOM     29  C   UNL     1      36.770  10.804 122.337 -0.56 -0.00    +0.000    127.514
ATOM     30  C   UNL     1      37.064  11.697 121.291 -0.48 -0.00    +0.000    127.514
ATOM     31  C   UNL     1      36.899  13.074 121.465 -0.38 -0.00    +0.000    127.514
ATOM     32  CM  UNL     1      36.612  12.197 122.515 +0.00 -0.00    +0.000    127.514
ATOM     33  C   UNL     1      36.944   9.340 122.169 -0.66 -0.00    +0.000    127.514
ATOM     34  N   UNL     1      37.009   8.461 123.298 -0.70 -0.00    +0.000    127.514
ATOM     35  O   UNL     1      37.050   8.856 121.009 -2.70 -0.00    +0.000    127.514
ATOM     36  H   UNL     1      37.013   8.833 124.210 -0.52 -0.00    +0.000    127.514
ATOM     37  O   UNL     1      37.066   7.120 123.118 -1.93 -0.00    +0.000    127.514
ATOM     38  H   UNL     1      37.360   6.927 122.214 -0.23 -0.00    +0.000    127.514
TER
ENDMDL
MODEL       67
USER    Run = 67
USER    Cluster Rank = 13
USER    Number of conformations in this cluster = 1
USER  
USER    RMSD from reference structure       = 124.803 A
USER  
USER    Estimated Free Energy of Binding    =  -10.73 kcal/mol  [=(1)+(2)+(3)-(4)]
USER    Estimated Inhibition Constant, Ki   =   13.75 nM (nanomolar)  [Temperature = 298.15 K]
USER    
USER    (1) Final Intermolecular Energy     =  -13.71 kcal/mol
USER        vdW + Hbond + desolv Energy     =  -13.71 kcal/mol
USER        Electrostatic Energy            =   +0.00 kcal/mol
USER    (2) Final Total Internal Energy     =   -2.07 kcal/mol
USER    (3) Torsional Free Energy           =   +2.98 kcal/mol
USER    (4) Unbound System's Energy  [=(2)] =   -2.07 kcal/mol
USER    
USER    
USER  
USER    DPF = ligand_dock.biased.dpf
USER    NEWDPF move	ligand.dum.pdbqt
USER    NEWDPF about	1.858000 0.218000 -0.021000
USER    NEWDPF tran0	36.396753 16.961756 122.817943
USER    NEWDPF axisangle0	-0.740598 0.025725 -0.671456 -141.320672
USER    NEWDPF quaternion0	-0.698808 0.024274 -0.633567 -0.331168
USER    NEWDPF dihe0	-59.25 -159.60 22.42 -25.42 -163.80 150.91 -66.07 -0.78 -102.48 100.37 
USER  
USER                              x       y       z    vdW   Elec        q     RMS 
ATOM      1  C   UNL     1      37.465  18.194 123.039 -0.16 -0.00    +0.000    124.803
ATOM      2  C   UNL     1      36.678  18.688 121.861 -0.14 -0.00    +0.000    124.803
ATOM      3  C   UNL     1      37.212  19.674 121.018 -0.10 -0.00    +0.000    124.803
ATOM      4  C   UNL     1      36.471  20.164 119.940 -0.09 -0.00    +0.000    124.803
ATOM      5  C   UNL     1      35.176  19.683 119.699 -0.09 -0.00    +0.000    124.803
ATOM      6  C   UNL     1      34.423  20.171 118.620 -0.13 -0.00    +0.000    124.803
ATOM      7  C   UNL     1      33.124  19.689 118.386 -0.20 -0.00    +0.000    124.803
ATOM      8  C   UNL     1      32.584  18.713 119.237 -0.33 -0.00    +0.000    124.803
ATOM      9  C   UNL     1      33.326  18.224 120.315 -0.32 -0.00    +0.000    124.803
ATOM     10  C   UNL     1      34.622  18.701 120.554 -0.24 -0.00    +0.000    124.803
ATOM     11  C   UNL     1      35.376  18.215 121.634 -0.25 -0.00    +0.000    124.803
ATOM     12  CM  UNL     1      35.922  19.187 120.785 +0.00 -0.00    +0.000    124.803
ATOM     13  CM  UNL     1      33.876  19.197 119.469 +0.00 -0.00    +0.000    124.803
ATOM     14  C   UNL     1      32.317  20.193 117.218 -0.12 -0.00    +0.000    124.803
ATOM     15  N   UNL     1      31.388  21.254 117.663 -0.14 -0.00    +0.000    124.803
ATOM     16  H   UNL     1      31.629  21.505 118.621 -0.03 -0.00    +0.000    124.803
ATOM     17  C   UNL     1      29.991  20.762 117.717 -0.18 -0.00    +0.000    124.803
ATOM     18  C   UNL     1      29.511  20.566 119.155 -0.32 -0.00    +0.000    124.803
ATOM     19  C   UNL     1      31.560  22.508 116.887 -0.08 -0.00    +0.000    124.803
ATOM     20  C   UNL     1      32.533  23.513 117.520 -0.11 -0.00    +0.000    124.803
ATOM     21  O   UNL     1      36.823  17.045 123.583 -0.28 -0.00    +0.000    124.803
ATOM     22  O   UNL     1      37.564  15.622 121.925 -0.26 -0.00    +0.000    124.803
ATOM     23  C   UNL     1      36.918  15.780 122.998 -0.36 -0.00    +0.000    124.803
ATOM     24  N   UNL     1      36.238  14.676 123.609 -0.48 -0.00    +0.000    124.803
ATOM     25  H   UNL     1      35.621  14.870 124.351 -0.04 -0.00    +0.000    124.803
ATOM     26  C   UNL     1      36.398  13.303 123.212 -0.53 -0.00    +0.000    124.803
ATOM     27  C   UNL     1      36.321  12.294 124.182 -0.47 -0.00    +0.000    124.803
ATOM     28  C   UNL     1      36.494  10.953 123.826 -0.36 -0.00    +0.000    124.803
ATOM     29  C   UNL     1      36.757  10.595 122.493 -0.57 -0.00    +0.000    124.803
ATOM     30  C   UNL     1      36.869  11.611 121.528 -0.49 -0.00    +0.000    124.803
ATOM     31  C   UNL     1      36.696  12.952 121.884 -0.42 -0.00    +0.000    124.803
ATOM     32  CM  UNL     1      36.589  11.951 122.854 +0.00 -0.00    +0.000    124.803
ATOM     33  C   UNL     1      36.942   9.168 122.132 -0.68 -0.00    +0.000    124.803
ATOM     34  N   UNL     1      36.996   8.145 123.133 -0.74 -0.00    +0.000    124.803
ATOM     35  O   UNL     1      37.070   8.846 120.919 -2.71 -0.00    +0.000    124.803
ATOM     36  H   UNL     1      36.983   8.390 124.086 -0.37 -0.00    +0.000    124.803
ATOM     37  O   UNL     1      37.065   6.840 122.773 -1.56 -0.00    +0.000    124.803
ATOM     38  H   UNL     1      37.417   6.771 121.872 -0.38 -0.00    +0.000    124.803
TER
ENDMDL
MODEL       26
USER    Run = 26
USER    Cluster Rank = 14
USER    Number of conformations in this cluster = 1
USER  
USER    RMSD from reference structure       = 123.705 A
USER  
USER    Estimated Free Energy of Binding    =  -10.69 kcal/mol  [=(1)+(2)+(3)-(4)]
USER    Estimated Inhibition Constant, Ki   =   14.65 nM (nanomolar)  [Temperature = 298.15 K]
USER    
USER    (1) Final Intermolecular Energy     =  -13.67 kcal/mol
USER        vdW + Hbond + desolv Energy     =  -13.67 kcal/mol
USER        Electrostatic Energy            =   +0.00 kcal/mol
USER    (2) Final Total Internal Energy     =   -2.67 kcal/mol
USER    (3) Torsional Free Energy           =   +2.98 kcal/mol
USER    (4) Unbound System's Energy  [=(2)] =   -2.67 kcal/mol
USER    
USER    
USER  
USER    DPF = ligand_dock.biased.dpf
USER    NEWDPF move	ligand.dum.pdbqt
USER    NEWDPF about	1.858000 0.218000 -0.021000
USER    NEWDPF tran0	40.140634 15.916931 122.076011
USER    NEWDPF axisangle0	0.680242 0.405044 0.610909 129.515805
USER    NEWDPF quaternion0	0.615289 0.366368 0.552576 0.426444
USER    NEWDPF dihe0	-49.09 -175.47 2.14 -180.00 62.06 -176.84 93.49 82.80 171.85 -3.67 
USER  
USER                              x       y       z    vdW   Elec        q     RMS 
ATOM      1  C   UNL     1      40.066  17.557 121.961 -0.14 -0.00    +0.000    123.705
ATOM      2  C   UNL     1      39.606  17.139 120.594 -0.09 -0.00    +0.000    123.705
ATOM      3  C   UNL     1      38.235  17.050 120.308 -0.08 -0.00    +0.000    123.705
ATOM      4  C   UNL     1      37.801  16.628 119.049 -0.10 -0.00    +0.000    123.705
ATOM      5  C   UNL     1      38.733  16.275 118.062 -0.11 -0.00    +0.000    123.705
ATOM      6  C   UNL     1      38.305  15.849 116.795 -0.13 -0.00    +0.000    123.705
ATOM      7  C   UNL     1      39.244  15.492 115.813 -0.21 -0.00    +0.000    123.705
ATOM      8  C   UNL     1      40.615  15.567 116.105 -0.26 -0.00    +0.000    123.705
ATOM      9  C   UNL     1      41.048  15.990 117.364 -0.19 -0.00    +0.000    123.705
ATOM     10  C   UNL     1      40.117  16.346 118.349 -0.12 -0.00    +0.000    123.705
ATOM     11  C   UNL     1      40.544  16.772 119.616 -0.10 -0.00    +0.000    123.705
ATOM     12  CM  UNL     1      39.173  16.702 119.330 +0.00 -0.00    +0.000    123.705
ATOM     13  CM  UNL     1      39.677  15.920 117.082 +0.00 -0.00    +0.000    123.705
ATOM     14  C   UNL     1      38.794  15.051 114.445 -0.26 -0.00    +0.000    123.705
ATOM     15  N   UNL     1      38.054  13.774 114.539 -0.36 -0.00    +0.000    123.705
ATOM     16  H   UNL     1      38.266  13.224 113.708 -0.03 -0.00    +0.000    123.705
ATOM     17  C   UNL     1      36.589  13.994 114.511 -0.32 -0.00    +0.000    123.705
ATOM     18  C   UNL     1      35.938  13.343 113.292 -0.32 -0.00    +0.000    123.705
ATOM     19  C   UNL     1      38.522  12.942 115.676 -0.55 -0.00    +0.000    123.705
ATOM     20  C   UNL     1      39.316  11.695 115.260 -0.44 -0.00    +0.000    123.705
ATOM     21  O   UNL     1      40.131  16.411 122.804 -0.31 -0.00    +0.000    123.705
ATOM     22  O   UNL     1      40.349  14.403 121.689 -1.00 -0.00    +0.000    123.705
ATOM     23  C   UNL     1      39.646  15.160 122.415 -0.40 -0.00    +0.000    123.705
ATOM     24  N   UNL     1      38.327  14.768 122.816 -0.39 -0.00    +0.000    123.705
ATOM     25  H   UNL     1      37.756  15.446 123.244 -0.02 -0.00    +0.000    123.705
ATOM     26  C   UNL     1      37.781  13.450 122.634 -0.45 -0.00    +0.000    123.705
ATOM     27  C   UNL     1      37.785  12.875 121.356 -0.42 -0.00    +0.000    123.705
ATOM     28  C   UNL     1      37.241  11.605 121.147 -0.42 -0.00    +0.000    123.705
ATOM     29  C   UNL     1      36.673  10.886 122.213 -0.57 -0.00    +0.000    123.705
ATOM     30  C   UNL     1      36.637  11.479 123.488 -0.63 -0.00    +0.000    123.705
ATOM     31  C   UNL     1      37.183  12.750 123.696 -0.44 -0.00    +0.000    123.705
ATOM     32  CM  UNL     1      37.216  12.174 122.422 +0.00 -0.00    +0.000    123.705
ATOM     33  C   UNL     1      36.095   9.540 121.976 -0.59 -0.00    +0.000    123.705
ATOM     34  N   UNL     1      34.886   9.122 122.621 -0.60 -0.00    +0.000    123.705
ATOM     35  O   UNL     1      36.685   8.739 121.201 -2.51 -0.00    +0.000    123.705
ATOM     36  H   UNL     1      34.462   9.704 123.292 -0.45 -0.00    +0.000    123.705
ATOM     37  O   UNL     1      34.324   7.929 122.311 -0.66 -0.00    +0.000    123.705
ATOM     38  H   UNL     1      34.880   7.468 121.663 -0.01 -0.00    +0.000    123.705
TER
ENDMDL


AVSFLD: # AVS field file
AVSFLD: #
AVSFLD: # Created by AutoDock
AVSFLD: #
AVSFLD: ndim=2           # number of dimensions in the field
AVSFLD: nspace=1         # number of physical coordinates
AVSFLD: veclen=7         # vector size
AVSFLD: dim1=38          # atoms
AVSFLD: dim2=14          # conformations
AVSFLD: data=Real       # data type (byte,integer,Real,double)
AVSFLD: field=uniform    # field coordinate layout
AVSFLD: label= x y z vdW Elec q RMS
AVSFLD: variable 1 file = ligand_dock.biased.dlg.pdb filetype = ascii offset = 5 stride = 12
AVSFLD: variable 2 file = ligand_dock.biased.dlg.pdb filetype = ascii offset = 6 stride = 12
AVSFLD: variable 3 file = ligand_dock.biased.dlg.pdb filetype = ascii offset = 7 stride = 12
AVSFLD: variable 4 file = ligand_dock.biased.dlg.pdb filetype = ascii offset = 8 stride = 12
AVSFLD: variable 5 file = ligand_dock.biased.dlg.pdb filetype = ascii offset = 9 stride = 12
AVSFLD: variable 6 file = ligand_dock.biased.dlg.pdb filetype = ascii offset = 10 stride = 12
AVSFLD: variable 7 file = ligand_dock.biased.dlg.pdb filetype = ascii offset = 11 stride = 12
AVSFLD: # end of file

>>> Closing the docking parameter file (DPF)...
This docking finished at:			6:58 38" p.m., 11/08/2024


________________________________________________________________________________

autodock4: Successful Completion on "ThinkStation-P620"

Real= 19m 31.61s,  CPU= 19m 31.27s,  System= 0.22s
________________________________________________________________________________

